1

   Abaqus 3DEXPERIENCE R2018x                                  Date 19-May-2020   Time 14:28:13
   For use by Supplied by Team-SolidSQUAD under license from Dassault Systemes or its subsidiary.

 Piezoelectric strip under Shear                                                 
                                                                                 
 STEP    1     INCREMENT     1     STEP TIME    0.00    


                        S T E P       1     S T A T I C   A N A L Y S I S


                                                                                          

     AUTOMATIC TIME CONTROL WITH -
          A SUGGESTED INITIAL TIME INCREMENT OF                 1.00    
          AND A TOTAL TIME PERIOD OF                            1.00    
          THE MINIMUM TIME INCREMENT ALLOWED IS                1.000E-05
          THE MAXIMUM TIME INCREMENT ALLOWED IS                 1.00    

     LINEAR EQUATION SOLVER TYPE         DIRECT SPARSE

 CONVERGENCE TOLERANCE PARAMETERS FOR FORCE    
     CRITERION FOR RESIDUAL FORCE     FOR A NONLINEAR PROBLEM          5.000E-03
     CRITERION FOR DISP.    CORRECTION IN A NONLINEAR PROBLEM          1.000E-02
     INITIAL VALUE OF TIME AVERAGE FORCE                               1.000E-02
     AVERAGE FORCE     IS TIME AVERAGE FORCE    
     ALTERNATE CRIT. FOR RESIDUAL FORCE     FOR A NONLINEAR PROBLEM    2.000E-02
     CRITERION FOR ZERO FORCE     RELATIVE TO TIME AVRG. FORCE         1.000E-05
     CRITERION FOR RESIDUAL FORCE     WHEN THERE IS ZERO FLUX          1.000E-05
     CRITERION FOR DISP.    CORRECTION WHEN THERE IS ZERO FLUX         1.000E-03
     CRITERION FOR RESIDUAL FORCE     FOR A LINEAR INCREMENT           1.000E-08
     FIELD CONVERSION RATIO                                             1.00    
     CRITERION FOR ZERO FORCE     REL. TO TIME AVRG. MAX. FORCE        1.000E-05
     CRITERION FOR ZERO DISP.    RELATIVE TO CHARACTERISTIC LENGTH     1.000E-08

 CONVERGENCE TOLERANCE PARAMETERS FOR CHARGE   
     CRITERION FOR RESIDUAL CHARGE    FOR A NONLINEAR PROBLEM          5.000E-03
     CRITERION FOR E. POT.  CORRECTION IN A NONLINEAR PROBLEM          1.000E-02
     INITIAL VALUE OF TIME AVERAGE CHARGE                              1.000E-02
     AVERAGE CHARGE    IS TIME AVERAGE CHARGE   
     ALTERNATE CRIT. FOR RESIDUAL CHARGE    FOR A NONLINEAR PROBLEM    2.000E-02
     CRITERION FOR ZERO CHARGE    RELATIVE TO TIME AVRG. CHARGE        1.000E-05
     CRITERION FOR RESIDUAL CHARGE    WHEN THERE IS ZERO FLUX          1.000E-05
     CRITERION FOR E. POT.  CORRECTION WHEN THERE IS ZERO FLUX         1.000E-03
     CRITERION FOR RESIDUAL CHARGE    FOR A LINEAR INCREMENT           1.000E-08
     FIELD CONVERSION RATIO                                             1.00    
     CRITERION FOR ZERO CHARGE    REL. TO TIME AVRG. MAX. CHARGE       1.000E-05

     VOLUMETRIC STRAIN COMPATIBILITY TOLERANCE FOR HYBRID SOLIDS       1.000E-05
     AXIAL STRAIN COMPATIBILITY TOLERANCE FOR HYBRID BEAMS             1.000E-05
     TRANS. SHEAR STRAIN COMPATIBILITY TOLERANCE FOR HYBRID BEAMS      1.000E-05
     SOFT CONTACT CONSTRAINT COMPATIBILITY TOLERANCE FOR P>P0          5.000E-03
     SOFT CONTACT CONSTRAINT COMPATIBILITY TOLERANCE FOR P=0.0         0.100    
     CONTACT FORCE ERROR TOLERANCE FOR CONVERT SDI=YES                 1.00    
     DISPLACEMENT COMPATIBILITY TOLERANCE FOR DCOUP ELEMENTS           1.000E-05
     ROTATION COMPATIBILITY TOLERANCE FOR DCOUP ELEMENTS               1.000E-05

 EQUILIBRIUM WILL BE CHECKED FOR SEVERE DISCONTINUITY ITERATIONS

 TIME INCREMENTATION CONTROL PARAMETERS:
     FIRST EQUILIBRIUM ITERATION FOR CONSECUTIVE DIVERGENCE CHECK              4
     EQUILIBRIUM ITERATION AT WHICH LOG. CONVERGENCE RATE CHECK BEGINS         8
     EQUILIBRIUM ITERATION AFTER WHICH ALTERNATE RESIDUAL IS USED              9
     MAXIMUM EQUILIBRIUM ITERATIONS ALLOWED                                   16
     EQUILIBRIUM ITERATION COUNT FOR CUT-BACK IN NEXT INCREMENT               10
     MAXIMUM EQUILIB. ITERS IN TWO INCREMENTS FOR TIME INCREMENT INCREASE      4
     MAXIMUM ITERATIONS FOR SEVERE DISCONTINUITIES                            50
     MAXIMUM ATTEMPTS ALLOWED IN AN INCREMENT                                  5
     MAXIMUM DISCON. ITERS IN TWO INCREMENTS FOR TIME INCREMENT INCREASE      50
     MAXIMUM CONTACT AUGMENTATIONS FOR *SURFACE BEHAVIOR,AUGMENTED LAGRANGE   50
     CUT-BACK FACTOR AFTER DIVERGENCE                                 0.2500    
     CUT-BACK FACTOR FOR TOO SLOW CONVERGENCE                         0.5000    
     CUT-BACK FACTOR AFTER TOO MANY EQUILIBRIUM ITERATIONS            0.7500    
     CUT-BACK FACTOR AFTER TOO MANY SEVERE DISCONTINUITY ITERATIONS   0.2500    
     CUT-BACK FACTOR AFTER PROBLEMS IN ELEMENT ASSEMBLY               0.2500    
     INCREASE FACTOR AFTER TWO INCREMENTS THAT CONVERGE QUICKLY        1.500    
     MAX. TIME INCREMENT INCREASE FACTOR ALLOWED                       1.500    
     MAX. TIME INCREMENT INCREASE FACTOR ALLOWED (DYNAMICS)            1.250    
     MAX. TIME INCREMENT INCREASE FACTOR ALLOWED (DIFFUSION)           2.000    
     MINIMUM TIME INCREMENT RATIO FOR EXTRAPOLATION TO OCCUR          0.1000    
     MAX. RATIO OF TIME INCREMENT TO STABILITY LIMIT                   1.000    
     FRACTION OF STABILITY LIMIT FOR NEW TIME INCREMENT               0.9500    
     TIME INCREMENT INCREASE FACTOR BEFORE A TIME POINT                1.000    
     GLOBAL STABILIZATION CONTROL IS NOT USED

          PRINT OF INCREMENT NUMBER, TIME, ETC., EVERY    1  INCREMENTS

     THE MAXIMUM NUMBER OF INCREMENTS IN THIS STEP IS                     100

     LINEAR EXTRAPOLATION WILL BE USED

     DETAILS REGARDING ACTUAL SOLUTION WAVEFRONT REQUESTED

     DETAILED OUTPUT OF DIAGNOSTICS TO DATABASE REQUESTED

     PRINT OF INCREMENT NUMBER, TIME, ETC., TO THE MESSAGE FILE EVERY     1  INCREMENTS

     COLLECTING MODEL CONSTRAINT INFORMATION FOR OVERCONSTRAINT CHECKS

     COLLECTING STEP CONSTRAINT INFORMATION FOR OVERCONSTRAINT CHECKS
 ***********************************
 CURRENT ELEMENT NUMBER::::           1
 NUMBER OF NODES:::           4
 DOFs:::           2
 TOTAL DOF OF ELEMENT:::           12
 ************************************
           1
 AREA1  0.000000000000000E+000
 AREA2  0.000000000000000E+000
 U1x  =  0.000000000000000E+000
 U1y  =  0.000000000000000E+000
 Phi1 =  0.000000000000000E+000
 U2x  =  0.000000000000000E+000
 U2y  =  0.000000000000000E+000
 Phi2 =  0.000000000000000E+000
 U3x  =  0.000000000000000E+000
 U3y  =  0.000000000000000E+000
 Phi3 =  0.000000000000000E+000
 U4x  =  0.000000000000000E+000
 U4y  =  0.000000000000000E+000
 Phi4 =  0.000000000000000E+000
 ***********************************
 CURRENT ELEMENT NUMBER::::           2
 NUMBER OF NODES:::           4
 DOFs:::           2
 TOTAL DOF OF ELEMENT:::           12
 ************************************
           2
 AREA1  0.000000000000000E+000
 AREA2  0.000000000000000E+000
 U1x  =  0.000000000000000E+000
 U1y  =  0.000000000000000E+000
 Phi1 =  0.000000000000000E+000
 U2x  =  0.000000000000000E+000
 U2y  =  0.000000000000000E+000
 Phi2 =  0.000000000000000E+000
 U3x  =  0.000000000000000E+000
 U3y  =  0.000000000000000E+000
 Phi3 =  0.000000000000000E+000
 U4x  =  0.000000000000000E+000
 U4y  =  0.000000000000000E+000
 Phi4 =  0.000000000000000E+000
 ***********************************
 CURRENT ELEMENT NUMBER::::           3
 NUMBER OF NODES:::           4
 DOFs:::           2
 TOTAL DOF OF ELEMENT:::           12
 ************************************
           3
 AREA1  0.000000000000000E+000
 AREA2  0.000000000000000E+000
 U1x  =  0.000000000000000E+000
 U1y  =  0.000000000000000E+000
 Phi1 =  0.000000000000000E+000
 U2x  =  0.000000000000000E+000
 U2y  =  0.000000000000000E+000
 Phi2 =  0.000000000000000E+000
 U3x  =  0.000000000000000E+000
 U3y  =  0.000000000000000E+000
 Phi3 =  0.000000000000000E+000
 U4x  =  0.000000000000000E+000
 U4y  =  0.000000000000000E+000
 Phi4 =  0.000000000000000E+000
 ***********************************
 CURRENT ELEMENT NUMBER::::           4
 NUMBER OF NODES:::           4
 DOFs:::           2
 TOTAL DOF OF ELEMENT:::           12
 ************************************
           4
 AREA1  0.000000000000000E+000
 AREA2  0.000000000000000E+000
 U1x  =  0.000000000000000E+000
 U1y  =  0.000000000000000E+000
 Phi1 =  0.000000000000000E+000
 U2x  =  0.000000000000000E+000
 U2y  =  0.000000000000000E+000
 Phi2 =  0.000000000000000E+000
 U3x  =  0.000000000000000E+000
 U3y  =  0.000000000000000E+000
 Phi3 =  0.000000000000000E+000
 U4x  =  0.000000000000000E+000
 U4y  =  0.000000000000000E+000
 Phi4 =  0.000000000000000E+000
 ***********************************
 CURRENT ELEMENT NUMBER::::           5
 NUMBER OF NODES:::           4
 DOFs:::           2
 TOTAL DOF OF ELEMENT:::           12
 ************************************
           5
 AREA1  0.000000000000000E+000
 AREA2  0.000000000000000E+000
 U1x  =  0.000000000000000E+000
 U1y  =  0.000000000000000E+000
 Phi1 =  0.000000000000000E+000
 U2x  =  0.000000000000000E+000
 U2y  =  0.000000000000000E+000
 Phi2 =  0.000000000000000E+000
 U3x  =  0.000000000000000E+000
 U3y  =  0.000000000000000E+000
 Phi3 =  0.000000000000000E+000
 U4x  =  0.000000000000000E+000
 U4y  =  0.000000000000000E+000
 Phi4 =  0.000000000000000E+000
 ***********************************
 CURRENT ELEMENT NUMBER::::           6
 NUMBER OF NODES:::           4
 DOFs:::           2
 TOTAL DOF OF ELEMENT:::           12
 ************************************
           6
 AREA1  0.000000000000000E+000
 AREA2  0.000000000000000E+000
 U1x  =  0.000000000000000E+000
 U1y  =  0.000000000000000E+000
 Phi1 =  0.000000000000000E+000
 U2x  =  0.000000000000000E+000
 U2y  =  0.000000000000000E+000
 Phi2 =  0.000000000000000E+000
 U3x  =  0.000000000000000E+000
 U3y  =  0.000000000000000E+000
 Phi3 =  0.000000000000000E+000
 U4x  =  0.000000000000000E+000
 U4y  =  0.000000000000000E+000
 Phi4 =  0.000000000000000E+000
 ***********************************
 CURRENT ELEMENT NUMBER::::           7
 NUMBER OF NODES:::           4
 DOFs:::           2
 TOTAL DOF OF ELEMENT:::           12
 ************************************
           7
 AREA1  0.000000000000000E+000
 AREA2  0.000000000000000E+000
 U1x  =  0.000000000000000E+000
 U1y  =  0.000000000000000E+000
 Phi1 =  0.000000000000000E+000
 U2x  =  0.000000000000000E+000
 U2y  =  0.000000000000000E+000
 Phi2 =  0.000000000000000E+000
 U3x  =  0.000000000000000E+000
 U3y  =  0.000000000000000E+000
 Phi3 =  0.000000000000000E+000
 U4x  =  0.000000000000000E+000
 U4y  =  0.000000000000000E+000
 Phi4 =  0.000000000000000E+000
 ***********************************
 CURRENT ELEMENT NUMBER::::           8
 NUMBER OF NODES:::           4
 DOFs:::           2
 TOTAL DOF OF ELEMENT:::           12
 ************************************
           8
 AREA1  0.000000000000000E+000
 AREA2  0.000000000000000E+000
 U1x  =  0.000000000000000E+000
 U1y  =  0.000000000000000E+000
 Phi1 =  0.000000000000000E+000
 U2x  =  0.000000000000000E+000
 U2y  =  0.000000000000000E+000
 Phi2 =  0.000000000000000E+000
 U3x  =  0.000000000000000E+000
 U3y  =  0.000000000000000E+000
 Phi3 =  0.000000000000000E+000
 U4x  =  0.000000000000000E+000
 U4y  =  0.000000000000000E+000
 Phi4 =  0.000000000000000E+000
 ***********************************
 CURRENT ELEMENT NUMBER::::           9
 NUMBER OF NODES:::           4
 DOFs:::           2
 TOTAL DOF OF ELEMENT:::           12
 ************************************
           9
 AREA1  0.000000000000000E+000
 AREA2  0.000000000000000E+000
 U1x  =  0.000000000000000E+000
 U1y  =  0.000000000000000E+000
 Phi1 =  0.000000000000000E+000
 U2x  =  0.000000000000000E+000
 U2y  =  0.000000000000000E+000
 Phi2 =  0.000000000000000E+000
 U3x  =  0.000000000000000E+000
 U3y  =  0.000000000000000E+000
 Phi3 =  0.000000000000000E+000
 U4x  =  0.000000000000000E+000
 U4y  =  0.000000000000000E+000
 Phi4 =  0.000000000000000E+000
 ***********************************
 CURRENT ELEMENT NUMBER::::          10
 NUMBER OF NODES:::           4
 DOFs:::           2
 TOTAL DOF OF ELEMENT:::           12
 ************************************
          10
 AREA1  0.000000000000000E+000
 AREA2  0.000000000000000E+000
 U1x  =  0.000000000000000E+000
 U1y  =  0.000000000000000E+000
 Phi1 =  0.000000000000000E+000
 U2x  =  0.000000000000000E+000
 U2y  =  0.000000000000000E+000
 Phi2 =  0.000000000000000E+000
 U3x  =  0.000000000000000E+000
 U3y  =  0.000000000000000E+000
 Phi3 =  0.000000000000000E+000
 U4x  =  0.000000000000000E+000
 U4y  =  0.000000000000000E+000
 Phi4 =  0.000000000000000E+000
 ***********************************
 CURRENT ELEMENT NUMBER::::          11
 NUMBER OF NODES:::           4
 DOFs:::           2
 TOTAL DOF OF ELEMENT:::           12
 ************************************
          11
 AREA1  0.000000000000000E+000
 AREA2  0.000000000000000E+000
 U1x  =  0.000000000000000E+000
 U1y  =  0.000000000000000E+000
 Phi1 =  0.000000000000000E+000
 U2x  =  0.000000000000000E+000
 U2y  =  0.000000000000000E+000
 Phi2 =  0.000000000000000E+000
 U3x  =  0.000000000000000E+000
 U3y  =  0.000000000000000E+000
 Phi3 =  0.000000000000000E+000
 U4x  =  0.000000000000000E+000
 U4y  =  0.000000000000000E+000
 Phi4 =  0.000000000000000E+000
 ***********************************
 CURRENT ELEMENT NUMBER::::          12
 NUMBER OF NODES:::           4
 DOFs:::           2
 TOTAL DOF OF ELEMENT:::           12
 ************************************
          12
 AREA1  0.000000000000000E+000
 AREA2  0.000000000000000E+000
 U1x  =  0.000000000000000E+000
 U1y  =  0.000000000000000E+000
 Phi1 =  0.000000000000000E+000
 U2x  =  0.000000000000000E+000
 U2y  =  0.000000000000000E+000
 Phi2 =  0.000000000000000E+000
 U3x  =  0.000000000000000E+000
 U3y  =  0.000000000000000E+000
 Phi3 =  0.000000000000000E+000
 U4x  =  0.000000000000000E+000
 U4y  =  0.000000000000000E+000
 Phi4 =  0.000000000000000E+000
 ***********************************
 CURRENT ELEMENT NUMBER::::          13
 NUMBER OF NODES:::           4
 DOFs:::           2
 TOTAL DOF OF ELEMENT:::           12
 ************************************
          13
 AREA1  0.000000000000000E+000
 AREA2  0.000000000000000E+000
 U1x  =  0.000000000000000E+000
 U1y  =  0.000000000000000E+000
 Phi1 =  0.000000000000000E+000
 U2x  =  0.000000000000000E+000
 U2y  =  0.000000000000000E+000
 Phi2 =  0.000000000000000E+000
 U3x  =  0.000000000000000E+000
 U3y  =  0.000000000000000E+000
 Phi3 =  0.000000000000000E+000
 U4x  =  0.000000000000000E+000
 U4y  =  0.000000000000000E+000
 Phi4 =  0.000000000000000E+000
 ***********************************
 CURRENT ELEMENT NUMBER::::          14
 NUMBER OF NODES:::           4
 DOFs:::           2
 TOTAL DOF OF ELEMENT:::           12
 ************************************
          14
 AREA1  0.000000000000000E+000
 AREA2  0.000000000000000E+000
 U1x  =  0.000000000000000E+000
 U1y  =  0.000000000000000E+000
 Phi1 =  0.000000000000000E+000
 U2x  =  0.000000000000000E+000
 U2y  =  0.000000000000000E+000
 Phi2 =  0.000000000000000E+000
 U3x  =  0.000000000000000E+000
 U3y  =  0.000000000000000E+000
 Phi3 =  0.000000000000000E+000
 U4x  =  0.000000000000000E+000
 U4y  =  0.000000000000000E+000
 Phi4 =  0.000000000000000E+000
 ***********************************
 CURRENT ELEMENT NUMBER::::          15
 NUMBER OF NODES:::           4
 DOFs:::           2
 TOTAL DOF OF ELEMENT:::           12
 ************************************
          15
 AREA1  0.000000000000000E+000
 AREA2  0.000000000000000E+000
 U1x  =  0.000000000000000E+000
 U1y  =  0.000000000000000E+000
 Phi1 =  0.000000000000000E+000
 U2x  =  0.000000000000000E+000
 U2y  =  0.000000000000000E+000
 Phi2 =  0.000000000000000E+000
 U3x  =  0.000000000000000E+000
 U3y  =  0.000000000000000E+000
 Phi3 =  0.000000000000000E+000
 U4x  =  0.000000000000000E+000
 U4y  =  0.000000000000000E+000
 Phi4 =  0.000000000000000E+000
 ***********************************
 CURRENT ELEMENT NUMBER::::          16
 NUMBER OF NODES:::           4
 DOFs:::           2
 TOTAL DOF OF ELEMENT:::           12
 ************************************
          16
 AREA1  0.000000000000000E+000
 AREA2  0.000000000000000E+000
 U1x  =  0.000000000000000E+000
 U1y  =  0.000000000000000E+000
 Phi1 =  0.000000000000000E+000
 U2x  =  0.000000000000000E+000
 U2y  =  0.000000000000000E+000
 Phi2 =  0.000000000000000E+000
 U3x  =  0.000000000000000E+000
 U3y  =  0.000000000000000E+000
 Phi3 =  0.000000000000000E+000
 U4x  =  0.000000000000000E+000
 U4y  =  0.000000000000000E+000
 Phi4 =  0.000000000000000E+000
 ***********************************
 CURRENT ELEMENT NUMBER::::          17
 NUMBER OF NODES:::           4
 DOFs:::           2
 TOTAL DOF OF ELEMENT:::           12
 ************************************
          17
 AREA1  0.000000000000000E+000
 AREA2  0.000000000000000E+000
 U1x  =  0.000000000000000E+000
 U1y  =  0.000000000000000E+000
 Phi1 =  0.000000000000000E+000
 U2x  =  0.000000000000000E+000
 U2y  =  0.000000000000000E+000
 Phi2 =  0.000000000000000E+000
 U3x  =  0.000000000000000E+000
 U3y  =  0.000000000000000E+000
 Phi3 =  0.000000000000000E+000
 U4x  =  0.000000000000000E+000
 U4y  =  0.000000000000000E+000
 Phi4 =  0.000000000000000E+000
 ***********************************
 CURRENT ELEMENT NUMBER::::          18
 NUMBER OF NODES:::           4
 DOFs:::           2
 TOTAL DOF OF ELEMENT:::           12
 ************************************
          18
 AREA1  0.000000000000000E+000
 AREA2  0.000000000000000E+000
 U1x  =  0.000000000000000E+000
 U1y  =  0.000000000000000E+000
 Phi1 =  0.000000000000000E+000
 U2x  =  0.000000000000000E+000
 U2y  =  0.000000000000000E+000
 Phi2 =  0.000000000000000E+000
 U3x  =  0.000000000000000E+000
 U3y  =  0.000000000000000E+000
 Phi3 =  0.000000000000000E+000
 U4x  =  0.000000000000000E+000
 U4y  =  0.000000000000000E+000
 Phi4 =  0.000000000000000E+000
 ***********************************
 CURRENT ELEMENT NUMBER::::          19
 NUMBER OF NODES:::           4
 DOFs:::           2
 TOTAL DOF OF ELEMENT:::           12
 ************************************
          19
 AREA1  0.000000000000000E+000
 AREA2  0.000000000000000E+000
 U1x  =  0.000000000000000E+000
 U1y  =  0.000000000000000E+000
 Phi1 =  0.000000000000000E+000
 U2x  =  0.000000000000000E+000
 U2y  =  0.000000000000000E+000
 Phi2 =  0.000000000000000E+000
 U3x  =  0.000000000000000E+000
 U3y  =  0.000000000000000E+000
 Phi3 =  0.000000000000000E+000
 U4x  =  0.000000000000000E+000
 U4y  =  0.000000000000000E+000
 Phi4 =  0.000000000000000E+000
 ***********************************
 CURRENT ELEMENT NUMBER::::          20
 NUMBER OF NODES:::           4
 DOFs:::           2
 TOTAL DOF OF ELEMENT:::           12
 ************************************
          20
 AREA1  0.000000000000000E+000
 AREA2  0.000000000000000E+000
 U1x  =  0.000000000000000E+000
 U1y  =  0.000000000000000E+000
 Phi1 =  0.000000000000000E+000
 U2x  =  0.000000000000000E+000
 U2y  =  0.000000000000000E+000
 Phi2 =  0.000000000000000E+000
 U3x  =  0.000000000000000E+000
 U3y  =  0.000000000000000E+000
 Phi3 =  0.000000000000000E+000
 U4x  =  0.000000000000000E+000
 U4y  =  0.000000000000000E+000
 Phi4 =  0.000000000000000E+000
 ***********************************
 CURRENT ELEMENT NUMBER::::          21
 NUMBER OF NODES:::           4
 DOFs:::           2
 TOTAL DOF OF ELEMENT:::           12
 ************************************
          21
 AREA1  0.000000000000000E+000
 AREA2  0.000000000000000E+000
 U1x  =  0.000000000000000E+000
 U1y  =  0.000000000000000E+000
 Phi1 =  0.000000000000000E+000
 U2x  =  0.000000000000000E+000
 U2y  =  0.000000000000000E+000
 Phi2 =  0.000000000000000E+000
 U3x  =  0.000000000000000E+000
 U3y  =  0.000000000000000E+000
 Phi3 =  0.000000000000000E+000
 U4x  =  0.000000000000000E+000
 U4y  =  0.000000000000000E+000
 Phi4 =  0.000000000000000E+000
 ***********************************
 CURRENT ELEMENT NUMBER::::          22
 NUMBER OF NODES:::           4
 DOFs:::           2
 TOTAL DOF OF ELEMENT:::           12
 ************************************
          22
 AREA1  0.000000000000000E+000
 AREA2  0.000000000000000E+000
 U1x  =  0.000000000000000E+000
 U1y  =  0.000000000000000E+000
 Phi1 =  0.000000000000000E+000
 U2x  =  0.000000000000000E+000
 U2y  =  0.000000000000000E+000
 Phi2 =  0.000000000000000E+000
 U3x  =  0.000000000000000E+000
 U3y  =  0.000000000000000E+000
 Phi3 =  0.000000000000000E+000
 U4x  =  0.000000000000000E+000
 U4y  =  0.000000000000000E+000
 Phi4 =  0.000000000000000E+000
 ***********************************
 CURRENT ELEMENT NUMBER::::          23
 NUMBER OF NODES:::           4
 DOFs:::           2
 TOTAL DOF OF ELEMENT:::           12
 ************************************
          23
 AREA1  0.000000000000000E+000
 AREA2  0.000000000000000E+000
 U1x  =  0.000000000000000E+000
 U1y  =  0.000000000000000E+000
 Phi1 =  0.000000000000000E+000
 U2x  =  0.000000000000000E+000
 U2y  =  0.000000000000000E+000
 Phi2 =  0.000000000000000E+000
 U3x  =  0.000000000000000E+000
 U3y  =  0.000000000000000E+000
 Phi3 =  0.000000000000000E+000
 U4x  =  0.000000000000000E+000
 U4y  =  0.000000000000000E+000
 Phi4 =  0.000000000000000E+000
 ***********************************
 CURRENT ELEMENT NUMBER::::          24
 NUMBER OF NODES:::           4
 DOFs:::           2
 TOTAL DOF OF ELEMENT:::           12
 ************************************
          24
 AREA1  0.000000000000000E+000
 AREA2  0.000000000000000E+000
 U1x  =  0.000000000000000E+000
 U1y  =  0.000000000000000E+000
 Phi1 =  0.000000000000000E+000
 U2x  =  0.000000000000000E+000
 U2y  =  0.000000000000000E+000
 Phi2 =  0.000000000000000E+000
 U3x  =  0.000000000000000E+000
 U3y  =  0.000000000000000E+000
 Phi3 =  0.000000000000000E+000
 U4x  =  0.000000000000000E+000
 U4y  =  0.000000000000000E+000
 Phi4 =  0.000000000000000E+000
 ***********************************
 CURRENT ELEMENT NUMBER::::          25
 NUMBER OF NODES:::           4
 DOFs:::           2
 TOTAL DOF OF ELEMENT:::           12
 ************************************
          25
 AREA1  0.000000000000000E+000
 AREA2  0.000000000000000E+000
 U1x  =  0.000000000000000E+000
 U1y  =  0.000000000000000E+000
 Phi1 =  0.000000000000000E+000
 U2x  =  0.000000000000000E+000
 U2y  =  0.000000000000000E+000
 Phi2 =  0.000000000000000E+000
 U3x  =  0.000000000000000E+000
 U3y  =  0.000000000000000E+000
 Phi3 =  0.000000000000000E+000
 U4x  =  0.000000000000000E+000
 U4y  =  0.000000000000000E+000
 Phi4 =  0.000000000000000E+000
 ***********************************
 CURRENT ELEMENT NUMBER::::          26
 NUMBER OF NODES:::           4
 DOFs:::           2
 TOTAL DOF OF ELEMENT:::           12
 ************************************
          26
 AREA1  0.000000000000000E+000
 AREA2  0.000000000000000E+000
 U1x  =  0.000000000000000E+000
 U1y  =  0.000000000000000E+000
 Phi1 =  0.000000000000000E+000
 U2x  =  0.000000000000000E+000
 U2y  =  0.000000000000000E+000
 Phi2 =  0.000000000000000E+000
 U3x  =  0.000000000000000E+000
 U3y  =  0.000000000000000E+000
 Phi3 =  0.000000000000000E+000
 U4x  =  0.000000000000000E+000
 U4y  =  0.000000000000000E+000
 Phi4 =  0.000000000000000E+000
 ***********************************
 CURRENT ELEMENT NUMBER::::          27
 NUMBER OF NODES:::           4
 DOFs:::           2
 TOTAL DOF OF ELEMENT:::           12
 ************************************
          27
 AREA1  0.000000000000000E+000
 AREA2  0.000000000000000E+000
 U1x  =  0.000000000000000E+000
 U1y  =  0.000000000000000E+000
 Phi1 =  0.000000000000000E+000
 U2x  =  0.000000000000000E+000
 U2y  =  0.000000000000000E+000
 Phi2 =  0.000000000000000E+000
 U3x  =  0.000000000000000E+000
 U3y  =  0.000000000000000E+000
 Phi3 =  0.000000000000000E+000
 U4x  =  0.000000000000000E+000
 U4y  =  0.000000000000000E+000
 Phi4 =  0.000000000000000E+000
 ***********************************
 CURRENT ELEMENT NUMBER::::          28
 NUMBER OF NODES:::           4
 DOFs:::           2
 TOTAL DOF OF ELEMENT:::           12
 ************************************
          28
 AREA1  0.000000000000000E+000
 AREA2  0.000000000000000E+000
 U1x  =  0.000000000000000E+000
 U1y  =  0.000000000000000E+000
 Phi1 =  0.000000000000000E+000
 U2x  =  0.000000000000000E+000
 U2y  =  0.000000000000000E+000
 Phi2 =  0.000000000000000E+000
 U3x  =  0.000000000000000E+000
 U3y  =  0.000000000000000E+000
 Phi3 =  0.000000000000000E+000
 U4x  =  0.000000000000000E+000
 U4y  =  0.000000000000000E+000
 Phi4 =  0.000000000000000E+000
 ***********************************
 CURRENT ELEMENT NUMBER::::          29
 NUMBER OF NODES:::           4
 DOFs:::           2
 TOTAL DOF OF ELEMENT:::           12
 ************************************
          29
 AREA1  0.000000000000000E+000
 AREA2  0.000000000000000E+000
 U1x  =  0.000000000000000E+000
 U1y  =  0.000000000000000E+000
 Phi1 =  0.000000000000000E+000
 U2x  =  0.000000000000000E+000
 U2y  =  0.000000000000000E+000
 Phi2 =  0.000000000000000E+000
 U3x  =  0.000000000000000E+000
 U3y  =  0.000000000000000E+000
 Phi3 =  0.000000000000000E+000
 U4x  =  0.000000000000000E+000
 U4y  =  0.000000000000000E+000
 Phi4 =  0.000000000000000E+000
 ***********************************
 CURRENT ELEMENT NUMBER::::          30
 NUMBER OF NODES:::           4
 DOFs:::           2
 TOTAL DOF OF ELEMENT:::           12
 ************************************
          30
 AREA1  0.000000000000000E+000
 AREA2  0.000000000000000E+000
 U1x  =  0.000000000000000E+000
 U1y  =  0.000000000000000E+000
 Phi1 =  0.000000000000000E+000
 U2x  =  0.000000000000000E+000
 U2y  =  0.000000000000000E+000
 Phi2 =  0.000000000000000E+000
 U3x  =  0.000000000000000E+000
 U3y  =  0.000000000000000E+000
 Phi3 =  0.000000000000000E+000
 U4x  =  0.000000000000000E+000
 U4y  =  0.000000000000000E+000
 Phi4 =  0.000000000000000E+000
 ***********************************
 CURRENT ELEMENT NUMBER::::          31
 NUMBER OF NODES:::           4
 DOFs:::           2
 TOTAL DOF OF ELEMENT:::           12
 ************************************
          31
 AREA1  0.000000000000000E+000
 AREA2  0.000000000000000E+000
 U1x  =  0.000000000000000E+000
 U1y  =  0.000000000000000E+000
 Phi1 =  0.000000000000000E+000
 U2x  =  0.000000000000000E+000
 U2y  =  0.000000000000000E+000
 Phi2 =  0.000000000000000E+000
 U3x  =  0.000000000000000E+000
 U3y  =  0.000000000000000E+000
 Phi3 =  0.000000000000000E+000
 U4x  =  0.000000000000000E+000
 U4y  =  0.000000000000000E+000
 Phi4 =  0.000000000000000E+000
 ***********************************
 CURRENT ELEMENT NUMBER::::          32
 NUMBER OF NODES:::           4
 DOFs:::           2
 TOTAL DOF OF ELEMENT:::           12
 ************************************
          32
 AREA1  0.000000000000000E+000
 AREA2  0.000000000000000E+000
 U1x  =  0.000000000000000E+000
 U1y  =  0.000000000000000E+000
 Phi1 =  0.000000000000000E+000
 U2x  =  0.000000000000000E+000
 U2y  =  0.000000000000000E+000
 Phi2 =  0.000000000000000E+000
 U3x  =  0.000000000000000E+000
 U3y  =  0.000000000000000E+000
 Phi3 =  0.000000000000000E+000
 U4x  =  0.000000000000000E+000
 U4y  =  0.000000000000000E+000
 Phi4 =  0.000000000000000E+000
 ***********************************
 CURRENT ELEMENT NUMBER::::          33
 NUMBER OF NODES:::           4
 DOFs:::           2
 TOTAL DOF OF ELEMENT:::           12
 ************************************
          33
 AREA1  0.000000000000000E+000
 AREA2  0.000000000000000E+000
 U1x  =  0.000000000000000E+000
 U1y  =  0.000000000000000E+000
 Phi1 =  0.000000000000000E+000
 U2x  =  0.000000000000000E+000
 U2y  =  0.000000000000000E+000
 Phi2 =  0.000000000000000E+000
 U3x  =  0.000000000000000E+000
 U3y  =  0.000000000000000E+000
 Phi3 =  0.000000000000000E+000
 U4x  =  0.000000000000000E+000
 U4y  =  0.000000000000000E+000
 Phi4 =  0.000000000000000E+000
 ***********************************
 CURRENT ELEMENT NUMBER::::          34
 NUMBER OF NODES:::           4
 DOFs:::           2
 TOTAL DOF OF ELEMENT:::           12
 ************************************
          34
 AREA1  0.000000000000000E+000
 AREA2  0.000000000000000E+000
 U1x  =  0.000000000000000E+000
 U1y  =  0.000000000000000E+000
 Phi1 =  0.000000000000000E+000
 U2x  =  0.000000000000000E+000
 U2y  =  0.000000000000000E+000
 Phi2 =  0.000000000000000E+000
 U3x  =  0.000000000000000E+000
 U3y  =  0.000000000000000E+000
 Phi3 =  0.000000000000000E+000
 U4x  =  0.000000000000000E+000
 U4y  =  0.000000000000000E+000
 Phi4 =  0.000000000000000E+000
 ***********************************
 CURRENT ELEMENT NUMBER::::          35
 NUMBER OF NODES:::           4
 DOFs:::           2
 TOTAL DOF OF ELEMENT:::           12
 ************************************
          35
 AREA1  0.000000000000000E+000
 AREA2  0.000000000000000E+000
 U1x  =  0.000000000000000E+000
 U1y  =  0.000000000000000E+000
 Phi1 =  0.000000000000000E+000
 U2x  =  0.000000000000000E+000
 U2y  =  0.000000000000000E+000
 Phi2 =  0.000000000000000E+000
 U3x  =  0.000000000000000E+000
 U3y  =  0.000000000000000E+000
 Phi3 =  0.000000000000000E+000
 U4x  =  0.000000000000000E+000
 U4y  =  0.000000000000000E+000
 Phi4 =  0.000000000000000E+000
 ***********************************
 CURRENT ELEMENT NUMBER::::          36
 NUMBER OF NODES:::           4
 DOFs:::           2
 TOTAL DOF OF ELEMENT:::           12
 ************************************
          36
 AREA1  0.000000000000000E+000
 AREA2  0.000000000000000E+000
 U1x  =  0.000000000000000E+000
 U1y  =  0.000000000000000E+000
 Phi1 =  0.000000000000000E+000
 U2x  =  0.000000000000000E+000
 U2y  =  0.000000000000000E+000
 Phi2 =  0.000000000000000E+000
 U3x  =  0.000000000000000E+000
 U3y  =  0.000000000000000E+000
 Phi3 =  0.000000000000000E+000
 U4x  =  0.000000000000000E+000
 U4y  =  0.000000000000000E+000
 Phi4 =  0.000000000000000E+000
 ***********************************
 CURRENT ELEMENT NUMBER::::          37
 NUMBER OF NODES:::           4
 DOFs:::           2
 TOTAL DOF OF ELEMENT:::           12
 ************************************
          37
 AREA1  0.000000000000000E+000
 AREA2  0.000000000000000E+000
 U1x  =  0.000000000000000E+000
 U1y  =  0.000000000000000E+000
 Phi1 =  0.000000000000000E+000
 U2x  =  0.000000000000000E+000
 U2y  =  0.000000000000000E+000
 Phi2 =  0.000000000000000E+000
 U3x  =  0.000000000000000E+000
 U3y  =  0.000000000000000E+000
 Phi3 =  0.000000000000000E+000
 U4x  =  0.000000000000000E+000
 U4y  =  0.000000000000000E+000
 Phi4 =  0.000000000000000E+000
 ***********************************
 CURRENT ELEMENT NUMBER::::          38
 NUMBER OF NODES:::           4
 DOFs:::           2
 TOTAL DOF OF ELEMENT:::           12
 ************************************
          38
 AREA1  0.000000000000000E+000
 AREA2  0.000000000000000E+000
 U1x  =  0.000000000000000E+000
 U1y  =  0.000000000000000E+000
 Phi1 =  0.000000000000000E+000
 U2x  =  0.000000000000000E+000
 U2y  =  0.000000000000000E+000
 Phi2 =  0.000000000000000E+000
 U3x  =  0.000000000000000E+000
 U3y  =  0.000000000000000E+000
 Phi3 =  0.000000000000000E+000
 U4x  =  0.000000000000000E+000
 U4y  =  0.000000000000000E+000
 Phi4 =  0.000000000000000E+000
 ***********************************
 CURRENT ELEMENT NUMBER::::          39
 NUMBER OF NODES:::           4
 DOFs:::           2
 TOTAL DOF OF ELEMENT:::           12
 ************************************
          39
 AREA1  0.000000000000000E+000
 AREA2  0.000000000000000E+000
 U1x  =  0.000000000000000E+000
 U1y  =  0.000000000000000E+000
 Phi1 =  0.000000000000000E+000
 U2x  =  0.000000000000000E+000
 U2y  =  0.000000000000000E+000
 Phi2 =  0.000000000000000E+000
 U3x  =  0.000000000000000E+000
 U3y  =  0.000000000000000E+000
 Phi3 =  0.000000000000000E+000
 U4x  =  0.000000000000000E+000
 U4y  =  0.000000000000000E+000
 Phi4 =  0.000000000000000E+000
 ***********************************
 CURRENT ELEMENT NUMBER::::          40
 NUMBER OF NODES:::           4
 DOFs:::           2
 TOTAL DOF OF ELEMENT:::           12
 ************************************
          40
 AREA1  0.000000000000000E+000
 AREA2  0.000000000000000E+000
 U1x  =  0.000000000000000E+000
 U1y  =  0.000000000000000E+000
 Phi1 =  0.000000000000000E+000
 U2x  =  0.000000000000000E+000
 U2y  =  0.000000000000000E+000
 Phi2 =  0.000000000000000E+000
 U3x  =  0.000000000000000E+000
 U3y  =  0.000000000000000E+000
 Phi3 =  0.000000000000000E+000
 U4x  =  0.000000000000000E+000
 U4y  =  0.000000000000000E+000
 Phi4 =  0.000000000000000E+000
 ***********************************
 CURRENT ELEMENT NUMBER::::          41
 NUMBER OF NODES:::           4
 DOFs:::           2
 TOTAL DOF OF ELEMENT:::           12
 ************************************
          41
 AREA1  0.000000000000000E+000
 AREA2  0.000000000000000E+000
 U1x  =  0.000000000000000E+000
 U1y  =  0.000000000000000E+000
 Phi1 =  0.000000000000000E+000
 U2x  =  0.000000000000000E+000
 U2y  =  0.000000000000000E+000
 Phi2 =  0.000000000000000E+000
 U3x  =  0.000000000000000E+000
 U3y  =  0.000000000000000E+000
 Phi3 =  0.000000000000000E+000
 U4x  =  0.000000000000000E+000
 U4y  =  0.000000000000000E+000
 Phi4 =  0.000000000000000E+000
 ***********************************
 CURRENT ELEMENT NUMBER::::          42
 NUMBER OF NODES:::           4
 DOFs:::           2
 TOTAL DOF OF ELEMENT:::           12
 ************************************
          42
 AREA1  0.000000000000000E+000
 AREA2  0.000000000000000E+000
 U1x  =  0.000000000000000E+000
 U1y  =  0.000000000000000E+000
 Phi1 =  0.000000000000000E+000
 U2x  =  0.000000000000000E+000
 U2y  =  0.000000000000000E+000
 Phi2 =  0.000000000000000E+000
 U3x  =  0.000000000000000E+000
 U3y  =  0.000000000000000E+000
 Phi3 =  0.000000000000000E+000
 U4x  =  0.000000000000000E+000
 U4y  =  0.000000000000000E+000
 Phi4 =  0.000000000000000E+000
 ***********************************
 CURRENT ELEMENT NUMBER::::          43
 NUMBER OF NODES:::           4
 DOFs:::           2
 TOTAL DOF OF ELEMENT:::           12
 ************************************
          43
 AREA1  0.000000000000000E+000
 AREA2  0.000000000000000E+000
 U1x  =  0.000000000000000E+000
 U1y  =  0.000000000000000E+000
 Phi1 =  0.000000000000000E+000
 U2x  =  0.000000000000000E+000
 U2y  =  0.000000000000000E+000
 Phi2 =  0.000000000000000E+000
 U3x  =  0.000000000000000E+000
 U3y  =  0.000000000000000E+000
 Phi3 =  0.000000000000000E+000
 U4x  =  0.000000000000000E+000
 U4y  =  0.000000000000000E+000
 Phi4 =  0.000000000000000E+000
 ***********************************
 CURRENT ELEMENT NUMBER::::          44
 NUMBER OF NODES:::           4
 DOFs:::           2
 TOTAL DOF OF ELEMENT:::           12
 ************************************
          44
 AREA1  0.000000000000000E+000
 AREA2  0.000000000000000E+000
 U1x  =  0.000000000000000E+000
 U1y  =  0.000000000000000E+000
 Phi1 =  0.000000000000000E+000
 U2x  =  0.000000000000000E+000
 U2y  =  0.000000000000000E+000
 Phi2 =  0.000000000000000E+000
 U3x  =  0.000000000000000E+000
 U3y  =  0.000000000000000E+000
 Phi3 =  0.000000000000000E+000
 U4x  =  0.000000000000000E+000
 U4y  =  0.000000000000000E+000
 Phi4 =  0.000000000000000E+000
 ***********************************
 CURRENT ELEMENT NUMBER::::          45
 NUMBER OF NODES:::           4
 DOFs:::           2
 TOTAL DOF OF ELEMENT:::           12
 ************************************
          45
 AREA1  0.000000000000000E+000
 AREA2  0.000000000000000E+000
 U1x  =  0.000000000000000E+000
 U1y  =  0.000000000000000E+000
 Phi1 =  0.000000000000000E+000
 U2x  =  0.000000000000000E+000
 U2y  =  0.000000000000000E+000
 Phi2 =  0.000000000000000E+000
 U3x  =  0.000000000000000E+000
 U3y  =  0.000000000000000E+000
 Phi3 =  0.000000000000000E+000
 U4x  =  0.000000000000000E+000
 U4y  =  0.000000000000000E+000
 Phi4 =  0.000000000000000E+000
 ***********************************
 CURRENT ELEMENT NUMBER::::          46
 NUMBER OF NODES:::           4
 DOFs:::           2
 TOTAL DOF OF ELEMENT:::           12
 ************************************
          46
 AREA1  0.000000000000000E+000
 AREA2  0.000000000000000E+000
 U1x  =  0.000000000000000E+000
 U1y  =  0.000000000000000E+000
 Phi1 =  0.000000000000000E+000
 U2x  =  0.000000000000000E+000
 U2y  =  0.000000000000000E+000
 Phi2 =  0.000000000000000E+000
 U3x  =  0.000000000000000E+000
 U3y  =  0.000000000000000E+000
 Phi3 =  0.000000000000000E+000
 U4x  =  0.000000000000000E+000
 U4y  =  0.000000000000000E+000
 Phi4 =  0.000000000000000E+000
 ***********************************
 CURRENT ELEMENT NUMBER::::          47
 NUMBER OF NODES:::           4
 DOFs:::           2
 TOTAL DOF OF ELEMENT:::           12
 ************************************
          47
 AREA1  0.000000000000000E+000
 AREA2  0.000000000000000E+000
 U1x  =  0.000000000000000E+000
 U1y  =  0.000000000000000E+000
 Phi1 =  0.000000000000000E+000
 U2x  =  0.000000000000000E+000
 U2y  =  0.000000000000000E+000
 Phi2 =  0.000000000000000E+000
 U3x  =  0.000000000000000E+000
 U3y  =  0.000000000000000E+000
 Phi3 =  0.000000000000000E+000
 U4x  =  0.000000000000000E+000
 U4y  =  0.000000000000000E+000
 Phi4 =  0.000000000000000E+000
 ***********************************
 CURRENT ELEMENT NUMBER::::          48
 NUMBER OF NODES:::           4
 DOFs:::           2
 TOTAL DOF OF ELEMENT:::           12
 ************************************
          48
 AREA1  0.000000000000000E+000
 AREA2  0.000000000000000E+000
 U1x  =  0.000000000000000E+000
 U1y  =  0.000000000000000E+000
 Phi1 =  0.000000000000000E+000
 U2x  =  0.000000000000000E+000
 U2y  =  0.000000000000000E+000
 Phi2 =  0.000000000000000E+000
 U3x  =  0.000000000000000E+000
 U3y  =  0.000000000000000E+000
 Phi3 =  0.000000000000000E+000
 U4x  =  0.000000000000000E+000
 U4y  =  0.000000000000000E+000
 Phi4 =  0.000000000000000E+000
 ***********************************
 CURRENT ELEMENT NUMBER::::          49
 NUMBER OF NODES:::           4
 DOFs:::           2
 TOTAL DOF OF ELEMENT:::           12
 ************************************
          49
 AREA1  0.000000000000000E+000
 AREA2  0.000000000000000E+000
 U1x  =  0.000000000000000E+000
 U1y  =  0.000000000000000E+000
 Phi1 =  0.000000000000000E+000
 U2x  =  0.000000000000000E+000
 U2y  =  0.000000000000000E+000
 Phi2 =  0.000000000000000E+000
 U3x  =  0.000000000000000E+000
 U3y  =  0.000000000000000E+000
 Phi3 =  0.000000000000000E+000
 U4x  =  0.000000000000000E+000
 U4y  =  0.000000000000000E+000
 Phi4 =  0.000000000000000E+000
 ***********************************
 CURRENT ELEMENT NUMBER::::          50
 NUMBER OF NODES:::           4
 DOFs:::           2
 TOTAL DOF OF ELEMENT:::           12
 ************************************
          50
 AREA1  0.000000000000000E+000
 AREA2  0.000000000000000E+000
 U1x  =  0.000000000000000E+000
 U1y  =  0.000000000000000E+000
 Phi1 =  0.000000000000000E+000
 U2x  =  0.000000000000000E+000
 U2y  =  0.000000000000000E+000
 Phi2 =  0.000000000000000E+000
 U3x  =  0.000000000000000E+000
 U3y  =  0.000000000000000E+000
 Phi3 =  0.000000000000000E+000
 U4x  =  0.000000000000000E+000
 U4y  =  0.000000000000000E+000
 Phi4 =  0.000000000000000E+000
 ***********************************
 CURRENT ELEMENT NUMBER::::          51
 NUMBER OF NODES:::           4
 DOFs:::           2
 TOTAL DOF OF ELEMENT:::           12
 ************************************
          51
 AREA1  0.000000000000000E+000
 AREA2  0.000000000000000E+000
 U1x  =  0.000000000000000E+000
 U1y  =  0.000000000000000E+000
 Phi1 =  0.000000000000000E+000
 U2x  =  0.000000000000000E+000
 U2y  =  0.000000000000000E+000
 Phi2 =  0.000000000000000E+000
 U3x  =  0.000000000000000E+000
 U3y  =  0.000000000000000E+000
 Phi3 =  0.000000000000000E+000
 U4x  =  0.000000000000000E+000
 U4y  =  0.000000000000000E+000
 Phi4 =  0.000000000000000E+000
 ***********************************
 CURRENT ELEMENT NUMBER::::          52
 NUMBER OF NODES:::           4
 DOFs:::           2
 TOTAL DOF OF ELEMENT:::           12
 ************************************
          52
 AREA1  0.000000000000000E+000
 AREA2  0.000000000000000E+000
 U1x  =  0.000000000000000E+000
 U1y  =  0.000000000000000E+000
 Phi1 =  0.000000000000000E+000
 U2x  =  0.000000000000000E+000
 U2y  =  0.000000000000000E+000
 Phi2 =  0.000000000000000E+000
 U3x  =  0.000000000000000E+000
 U3y  =  0.000000000000000E+000
 Phi3 =  0.000000000000000E+000
 U4x  =  0.000000000000000E+000
 U4y  =  0.000000000000000E+000
 Phi4 =  0.000000000000000E+000
 ***********************************
 CURRENT ELEMENT NUMBER::::          53
 NUMBER OF NODES:::           4
 DOFs:::           2
 TOTAL DOF OF ELEMENT:::           12
 ************************************
          53
 AREA1  0.000000000000000E+000
 AREA2  0.000000000000000E+000
 U1x  =  0.000000000000000E+000
 U1y  =  0.000000000000000E+000
 Phi1 =  0.000000000000000E+000
 U2x  =  0.000000000000000E+000
 U2y  =  0.000000000000000E+000
 Phi2 =  0.000000000000000E+000
 U3x  =  0.000000000000000E+000
 U3y  =  0.000000000000000E+000
 Phi3 =  0.000000000000000E+000
 U4x  =  0.000000000000000E+000
 U4y  =  0.000000000000000E+000
 Phi4 =  0.000000000000000E+000
 ***********************************
 CURRENT ELEMENT NUMBER::::          54
 NUMBER OF NODES:::           4
 DOFs:::           2
 TOTAL DOF OF ELEMENT:::           12
 ************************************
          54
 AREA1  0.000000000000000E+000
 AREA2  0.000000000000000E+000
 U1x  =  0.000000000000000E+000
 U1y  =  0.000000000000000E+000
 Phi1 =  0.000000000000000E+000
 U2x  =  0.000000000000000E+000
 U2y  =  0.000000000000000E+000
 Phi2 =  0.000000000000000E+000
 U3x  =  0.000000000000000E+000
 U3y  =  0.000000000000000E+000
 Phi3 =  0.000000000000000E+000
 U4x  =  0.000000000000000E+000
 U4y  =  0.000000000000000E+000
 Phi4 =  0.000000000000000E+000
 ***********************************
 CURRENT ELEMENT NUMBER::::          55
 NUMBER OF NODES:::           4
 DOFs:::           2
 TOTAL DOF OF ELEMENT:::           12
 ************************************
          55
 AREA1  0.000000000000000E+000
 AREA2  0.000000000000000E+000
 U1x  =  0.000000000000000E+000
 U1y  =  0.000000000000000E+000
 Phi1 =  0.000000000000000E+000
 U2x  =  0.000000000000000E+000
 U2y  =  0.000000000000000E+000
 Phi2 =  0.000000000000000E+000
 U3x  =  0.000000000000000E+000
 U3y  =  0.000000000000000E+000
 Phi3 =  0.000000000000000E+000
 U4x  =  0.000000000000000E+000
 U4y  =  0.000000000000000E+000
 Phi4 =  0.000000000000000E+000
 ***********************************
 CURRENT ELEMENT NUMBER::::          56
 NUMBER OF NODES:::           4
 DOFs:::           2
 TOTAL DOF OF ELEMENT:::           12
 ************************************
          56
 AREA1  0.000000000000000E+000
 AREA2  0.000000000000000E+000
 U1x  =  0.000000000000000E+000
 U1y  =  0.000000000000000E+000
 Phi1 =  0.000000000000000E+000
 U2x  =  0.000000000000000E+000
 U2y  =  0.000000000000000E+000
 Phi2 =  0.000000000000000E+000
 U3x  =  0.000000000000000E+000
 U3y  =  0.000000000000000E+000
 Phi3 =  0.000000000000000E+000
 U4x  =  0.000000000000000E+000
 U4y  =  0.000000000000000E+000
 Phi4 =  0.000000000000000E+000
 ***********************************
 CURRENT ELEMENT NUMBER::::          57
 NUMBER OF NODES:::           4
 DOFs:::           2
 TOTAL DOF OF ELEMENT:::           12
 ************************************
          57
 AREA1  0.000000000000000E+000
 AREA2  0.000000000000000E+000
 U1x  =  0.000000000000000E+000
 U1y  =  0.000000000000000E+000
 Phi1 =  0.000000000000000E+000
 U2x  =  0.000000000000000E+000
 U2y  =  0.000000000000000E+000
 Phi2 =  0.000000000000000E+000
 U3x  =  0.000000000000000E+000
 U3y  =  0.000000000000000E+000
 Phi3 =  0.000000000000000E+000
 U4x  =  0.000000000000000E+000
 U4y  =  0.000000000000000E+000
 Phi4 =  0.000000000000000E+000
 ***********************************
 CURRENT ELEMENT NUMBER::::          58
 NUMBER OF NODES:::           4
 DOFs:::           2
 TOTAL DOF OF ELEMENT:::           12
 ************************************
          58
 AREA1  0.000000000000000E+000
 AREA2  0.000000000000000E+000
 U1x  =  0.000000000000000E+000
 U1y  =  0.000000000000000E+000
 Phi1 =  0.000000000000000E+000
 U2x  =  0.000000000000000E+000
 U2y  =  0.000000000000000E+000
 Phi2 =  0.000000000000000E+000
 U3x  =  0.000000000000000E+000
 U3y  =  0.000000000000000E+000
 Phi3 =  0.000000000000000E+000
 U4x  =  0.000000000000000E+000
 U4y  =  0.000000000000000E+000
 Phi4 =  0.000000000000000E+000
 ***********************************
 CURRENT ELEMENT NUMBER::::          59
 NUMBER OF NODES:::           4
 DOFs:::           2
 TOTAL DOF OF ELEMENT:::           12
 ************************************
          59
 AREA1  0.000000000000000E+000
 AREA2  0.000000000000000E+000
 U1x  =  0.000000000000000E+000
 U1y  =  0.000000000000000E+000
 Phi1 =  0.000000000000000E+000
 U2x  =  0.000000000000000E+000
 U2y  =  0.000000000000000E+000
 Phi2 =  0.000000000000000E+000
 U3x  =  0.000000000000000E+000
 U3y  =  0.000000000000000E+000
 Phi3 =  0.000000000000000E+000
 U4x  =  0.000000000000000E+000
 U4y  =  0.000000000000000E+000
 Phi4 =  0.000000000000000E+000
 ***********************************
 CURRENT ELEMENT NUMBER::::          60
 NUMBER OF NODES:::           4
 DOFs:::           2
 TOTAL DOF OF ELEMENT:::           12
 ************************************
          60
 AREA1  0.000000000000000E+000
 AREA2  0.000000000000000E+000
 U1x  =  0.000000000000000E+000
 U1y  =  0.000000000000000E+000
 Phi1 =  0.000000000000000E+000
 U2x  =  0.000000000000000E+000
 U2y  =  0.000000000000000E+000
 Phi2 =  0.000000000000000E+000
 U3x  =  0.000000000000000E+000
 U3y  =  0.000000000000000E+000
 Phi3 =  0.000000000000000E+000
 U4x  =  0.000000000000000E+000
 U4y  =  0.000000000000000E+000
 Phi4 =  0.000000000000000E+000
 ***********************************
 CURRENT ELEMENT NUMBER::::          61
 NUMBER OF NODES:::           4
 DOFs:::           2
 TOTAL DOF OF ELEMENT:::           12
 ************************************
          61
 AREA1  0.000000000000000E+000
 AREA2  0.000000000000000E+000
 U1x  =  0.000000000000000E+000
 U1y  =  0.000000000000000E+000
 Phi1 =  0.000000000000000E+000
 U2x  =  0.000000000000000E+000
 U2y  =  0.000000000000000E+000
 Phi2 =  0.000000000000000E+000
 U3x  =  0.000000000000000E+000
 U3y  =  0.000000000000000E+000
 Phi3 =  0.000000000000000E+000
 U4x  =  0.000000000000000E+000
 U4y  =  0.000000000000000E+000
 Phi4 =  0.000000000000000E+000
 ***********************************
 CURRENT ELEMENT NUMBER::::          62
 NUMBER OF NODES:::           4
 DOFs:::           2
 TOTAL DOF OF ELEMENT:::           12
 ************************************
          62
 AREA1  0.000000000000000E+000
 AREA2  0.000000000000000E+000
 U1x  =  0.000000000000000E+000
 U1y  =  0.000000000000000E+000
 Phi1 =  0.000000000000000E+000
 U2x  =  0.000000000000000E+000
 U2y  =  0.000000000000000E+000
 Phi2 =  0.000000000000000E+000
 U3x  =  0.000000000000000E+000
 U3y  =  0.000000000000000E+000
 Phi3 =  0.000000000000000E+000
 U4x  =  0.000000000000000E+000
 U4y  =  0.000000000000000E+000
 Phi4 =  0.000000000000000E+000
 ***********************************
 CURRENT ELEMENT NUMBER::::          63
 NUMBER OF NODES:::           4
 DOFs:::           2
 TOTAL DOF OF ELEMENT:::           12
 ************************************
          63
 AREA1  0.000000000000000E+000
 AREA2  0.000000000000000E+000
 U1x  =  0.000000000000000E+000
 U1y  =  0.000000000000000E+000
 Phi1 =  0.000000000000000E+000
 U2x  =  0.000000000000000E+000
 U2y  =  0.000000000000000E+000
 Phi2 =  0.000000000000000E+000
 U3x  =  0.000000000000000E+000
 U3y  =  0.000000000000000E+000
 Phi3 =  0.000000000000000E+000
 U4x  =  0.000000000000000E+000
 U4y  =  0.000000000000000E+000
 Phi4 =  0.000000000000000E+000
 ***********************************
 CURRENT ELEMENT NUMBER::::          64
 NUMBER OF NODES:::           4
 DOFs:::           2
 TOTAL DOF OF ELEMENT:::           12
 ************************************
          64
 AREA1  0.000000000000000E+000
 AREA2  0.000000000000000E+000
 U1x  =  0.000000000000000E+000
 U1y  =  0.000000000000000E+000
 Phi1 =  0.000000000000000E+000
 U2x  =  0.000000000000000E+000
 U2y  =  0.000000000000000E+000
 Phi2 =  0.000000000000000E+000
 U3x  =  0.000000000000000E+000
 U3y  =  0.000000000000000E+000
 Phi3 =  0.000000000000000E+000
 U4x  =  0.000000000000000E+000
 U4y  =  0.000000000000000E+000
 Phi4 =  0.000000000000000E+000
 ***********************************
 CURRENT ELEMENT NUMBER::::          65
 NUMBER OF NODES:::           4
 DOFs:::           2
 TOTAL DOF OF ELEMENT:::           12
 ************************************
          65
 AREA1  0.000000000000000E+000
 AREA2  0.000000000000000E+000
 U1x  =  0.000000000000000E+000
 U1y  =  0.000000000000000E+000
 Phi1 =  0.000000000000000E+000
 U2x  =  0.000000000000000E+000
 U2y  =  0.000000000000000E+000
 Phi2 =  0.000000000000000E+000
 U3x  =  0.000000000000000E+000
 U3y  =  0.000000000000000E+000
 Phi3 =  0.000000000000000E+000
 U4x  =  0.000000000000000E+000
 U4y  =  0.000000000000000E+000
 Phi4 =  0.000000000000000E+000
 ***********************************
 CURRENT ELEMENT NUMBER::::          66
 NUMBER OF NODES:::           4
 DOFs:::           2
 TOTAL DOF OF ELEMENT:::           12
 ************************************
          66
 AREA1  0.000000000000000E+000
 AREA2  0.000000000000000E+000
 U1x  =  0.000000000000000E+000
 U1y  =  0.000000000000000E+000
 Phi1 =  0.000000000000000E+000
 U2x  =  0.000000000000000E+000
 U2y  =  0.000000000000000E+000
 Phi2 =  0.000000000000000E+000
 U3x  =  0.000000000000000E+000
 U3y  =  0.000000000000000E+000
 Phi3 =  0.000000000000000E+000
 U4x  =  0.000000000000000E+000
 U4y  =  0.000000000000000E+000
 Phi4 =  0.000000000000000E+000
 ***********************************
 CURRENT ELEMENT NUMBER::::          67
 NUMBER OF NODES:::           4
 DOFs:::           2
 TOTAL DOF OF ELEMENT:::           12
 ************************************
          67
 AREA1  0.000000000000000E+000
 AREA2  0.000000000000000E+000
 U1x  =  0.000000000000000E+000
 U1y  =  0.000000000000000E+000
 Phi1 =  0.000000000000000E+000
 U2x  =  0.000000000000000E+000
 U2y  =  0.000000000000000E+000
 Phi2 =  0.000000000000000E+000
 U3x  =  0.000000000000000E+000
 U3y  =  0.000000000000000E+000
 Phi3 =  0.000000000000000E+000
 U4x  =  0.000000000000000E+000
 U4y  =  0.000000000000000E+000
 Phi4 =  0.000000000000000E+000
 ***********************************
 CURRENT ELEMENT NUMBER::::          68
 NUMBER OF NODES:::           4
 DOFs:::           2
 TOTAL DOF OF ELEMENT:::           12
 ************************************
          68
 AREA1  0.000000000000000E+000
 AREA2  0.000000000000000E+000
 U1x  =  0.000000000000000E+000
 U1y  =  0.000000000000000E+000
 Phi1 =  0.000000000000000E+000
 U2x  =  0.000000000000000E+000
 U2y  =  0.000000000000000E+000
 Phi2 =  0.000000000000000E+000
 U3x  =  0.000000000000000E+000
 U3y  =  0.000000000000000E+000
 Phi3 =  0.000000000000000E+000
 U4x  =  0.000000000000000E+000
 U4y  =  0.000000000000000E+000
 Phi4 =  0.000000000000000E+000
 ***********************************
 CURRENT ELEMENT NUMBER::::          69
 NUMBER OF NODES:::           4
 DOFs:::           2
 TOTAL DOF OF ELEMENT:::           12
 ************************************
          69
 AREA1  0.000000000000000E+000
 AREA2  0.000000000000000E+000
 U1x  =  0.000000000000000E+000
 U1y  =  0.000000000000000E+000
 Phi1 =  0.000000000000000E+000
 U2x  =  0.000000000000000E+000
 U2y  =  0.000000000000000E+000
 Phi2 =  0.000000000000000E+000
 U3x  =  0.000000000000000E+000
 U3y  =  0.000000000000000E+000
 Phi3 =  0.000000000000000E+000
 U4x  =  0.000000000000000E+000
 U4y  =  0.000000000000000E+000
 Phi4 =  0.000000000000000E+000
 ***********************************
 CURRENT ELEMENT NUMBER::::          70
 NUMBER OF NODES:::           4
 DOFs:::           2
 TOTAL DOF OF ELEMENT:::           12
 ************************************
          70
 AREA1  0.000000000000000E+000
 AREA2  0.000000000000000E+000
 U1x  =  0.000000000000000E+000
 U1y  =  0.000000000000000E+000
 Phi1 =  0.000000000000000E+000
 U2x  =  0.000000000000000E+000
 U2y  =  0.000000000000000E+000
 Phi2 =  0.000000000000000E+000
 U3x  =  0.000000000000000E+000
 U3y  =  0.000000000000000E+000
 Phi3 =  0.000000000000000E+000
 U4x  =  0.000000000000000E+000
 U4y  =  0.000000000000000E+000
 Phi4 =  0.000000000000000E+000


  INCREMENT     1 STARTS. ATTEMPT NUMBER  1, TIME INCREMENT   1.00    
 ***********************************
 CURRENT ELEMENT NUMBER::::           1
 NUMBER OF NODES:::           4
 DOFs:::           2
 TOTAL DOF OF ELEMENT:::           12
 ************************************
           1
 AREA1  0.000000000000000E+000
 AREA2  0.000000000000000E+000
 U1x  =  0.000000000000000E+000
 U1y  =  0.000000000000000E+000
 Phi1 =  0.000000000000000E+000
 U2x  =  0.000000000000000E+000
 U2y  =  0.000000000000000E+000
 Phi2 =  0.000000000000000E+000
 U3x  =  0.000000000000000E+000
 U3y  =  0.000000000000000E+000
 Phi3 =  0.000000000000000E+000
 U4x  =  0.000000000000000E+000
 U4y  =  0.000000000000000E+000
 Phi4 =  0.000000000000000E+000
 ***********************************
 CURRENT ELEMENT NUMBER::::           2
 NUMBER OF NODES:::           4
 DOFs:::           2
 TOTAL DOF OF ELEMENT:::           12
 ************************************
           2
 AREA1  0.000000000000000E+000
 AREA2  0.000000000000000E+000
 U1x  =  0.000000000000000E+000
 U1y  =  0.000000000000000E+000
 Phi1 =  0.000000000000000E+000
 U2x  =  0.000000000000000E+000
 U2y  =  0.000000000000000E+000
 Phi2 =  0.000000000000000E+000
 U3x  =  0.000000000000000E+000
 U3y  =  0.000000000000000E+000
 Phi3 =  0.000000000000000E+000
 U4x  =  0.000000000000000E+000
 U4y  =  0.000000000000000E+000
 Phi4 =  0.000000000000000E+000
 ***********************************
 CURRENT ELEMENT NUMBER::::           3
 NUMBER OF NODES:::           4
 DOFs:::           2
 TOTAL DOF OF ELEMENT:::           12
 ************************************
           3
 AREA1  0.000000000000000E+000
 AREA2  0.000000000000000E+000
 U1x  =  0.000000000000000E+000
 U1y  =  0.000000000000000E+000
 Phi1 =  0.000000000000000E+000
 U2x  =  0.000000000000000E+000
 U2y  =  0.000000000000000E+000
 Phi2 =  0.000000000000000E+000
 U3x  =  0.000000000000000E+000
 U3y  =  0.000000000000000E+000
 Phi3 =  0.000000000000000E+000
 U4x  =  0.000000000000000E+000
 U4y  =  0.000000000000000E+000
 Phi4 =  0.000000000000000E+000
 ***********************************
 CURRENT ELEMENT NUMBER::::           4
 NUMBER OF NODES:::           4
 DOFs:::           2
 TOTAL DOF OF ELEMENT:::           12
 ************************************
           4
 AREA1  0.000000000000000E+000
 AREA2  0.000000000000000E+000
 U1x  =  0.000000000000000E+000
 U1y  =  0.000000000000000E+000
 Phi1 =  0.000000000000000E+000
 U2x  =  0.000000000000000E+000
 U2y  =  0.000000000000000E+000
 Phi2 =  0.000000000000000E+000
 U3x  =  0.000000000000000E+000
 U3y  =  0.000000000000000E+000
 Phi3 =  0.000000000000000E+000
 U4x  =  0.000000000000000E+000
 U4y  =  0.000000000000000E+000
 Phi4 =  0.000000000000000E+000
 ***********************************
 CURRENT ELEMENT NUMBER::::           5
 NUMBER OF NODES:::           4
 DOFs:::           2
 TOTAL DOF OF ELEMENT:::           12
 ************************************
           5
 AREA1  0.000000000000000E+000
 AREA2  0.000000000000000E+000
 U1x  =  0.000000000000000E+000
 U1y  =  0.000000000000000E+000
 Phi1 =  0.000000000000000E+000
 U2x  =  0.000000000000000E+000
 U2y  =  0.000000000000000E+000
 Phi2 =  0.000000000000000E+000
 U3x  =  0.000000000000000E+000
 U3y  =  0.000000000000000E+000
 Phi3 =  0.000000000000000E+000
 U4x  =  0.000000000000000E+000
 U4y  =  0.000000000000000E+000
 Phi4 =  0.000000000000000E+000
 ***********************************
 CURRENT ELEMENT NUMBER::::           6
 NUMBER OF NODES:::           4
 DOFs:::           2
 TOTAL DOF OF ELEMENT:::           12
 ************************************
           6
 AREA1  0.000000000000000E+000
 AREA2  0.000000000000000E+000
 U1x  =  0.000000000000000E+000
 U1y  =  0.000000000000000E+000
 Phi1 =  0.000000000000000E+000
 U2x  =  0.000000000000000E+000
 U2y  =  0.000000000000000E+000
 Phi2 =  0.000000000000000E+000
 U3x  =  0.000000000000000E+000
 U3y  =  0.000000000000000E+000
 Phi3 =  0.000000000000000E+000
 U4x  =  0.000000000000000E+000
 U4y  =  0.000000000000000E+000
 Phi4 =  0.000000000000000E+000
 ***********************************
 CURRENT ELEMENT NUMBER::::           7
 NUMBER OF NODES:::           4
 DOFs:::           2
 TOTAL DOF OF ELEMENT:::           12
 ************************************
           7
 AREA1  0.000000000000000E+000
 AREA2  0.000000000000000E+000
 U1x  =  0.000000000000000E+000
 U1y  =  0.000000000000000E+000
 Phi1 =  0.000000000000000E+000
 U2x  =  0.000000000000000E+000
 U2y  =  0.000000000000000E+000
 Phi2 =  0.000000000000000E+000
 U3x  =  0.000000000000000E+000
 U3y  =  0.000000000000000E+000
 Phi3 =  0.000000000000000E+000
 U4x  =  0.000000000000000E+000
 U4y  =  0.000000000000000E+000
 Phi4 =  0.000000000000000E+000
 ***********************************
 CURRENT ELEMENT NUMBER::::           8
 NUMBER OF NODES:::           4
 DOFs:::           2
 TOTAL DOF OF ELEMENT:::           12
 ************************************
           8
 AREA1  0.000000000000000E+000
 AREA2  0.000000000000000E+000
 U1x  =  0.000000000000000E+000
 U1y  =  0.000000000000000E+000
 Phi1 =  0.000000000000000E+000
 U2x  =  0.000000000000000E+000
 U2y  =  0.000000000000000E+000
 Phi2 =  0.000000000000000E+000
 U3x  =  0.000000000000000E+000
 U3y  =  0.000000000000000E+000
 Phi3 =  0.000000000000000E+000
 U4x  =  0.000000000000000E+000
 U4y  =  0.000000000000000E+000
 Phi4 =  0.000000000000000E+000
 ***********************************
 CURRENT ELEMENT NUMBER::::           9
 NUMBER OF NODES:::           4
 DOFs:::           2
 TOTAL DOF OF ELEMENT:::           12
 ************************************
           9
 AREA1  0.000000000000000E+000
 AREA2  0.000000000000000E+000
 U1x  =  0.000000000000000E+000
 U1y  =  0.000000000000000E+000
 Phi1 =  0.000000000000000E+000
 U2x  =  0.000000000000000E+000
 U2y  =  0.000000000000000E+000
 Phi2 =  0.000000000000000E+000
 U3x  =  0.000000000000000E+000
 U3y  =  0.000000000000000E+000
 Phi3 =  0.000000000000000E+000
 U4x  =  0.000000000000000E+000
 U4y  =  0.000000000000000E+000
 Phi4 =  0.000000000000000E+000
 ***********************************
 CURRENT ELEMENT NUMBER::::          10
 NUMBER OF NODES:::           4
 DOFs:::           2
 TOTAL DOF OF ELEMENT:::           12
 ************************************
          10
 AREA1  0.000000000000000E+000
 AREA2  0.000000000000000E+000
 U1x  =  0.000000000000000E+000
 U1y  =  0.000000000000000E+000
 Phi1 =  0.000000000000000E+000
 U2x  =  0.000000000000000E+000
 U2y  =  0.000000000000000E+000
 Phi2 =  0.000000000000000E+000
 U3x  =  0.000000000000000E+000
 U3y  =  0.000000000000000E+000
 Phi3 =  0.000000000000000E+000
 U4x  =  0.000000000000000E+000
 U4y  =  0.000000000000000E+000
 Phi4 =  0.000000000000000E+000
 ***********************************
 CURRENT ELEMENT NUMBER::::          11
 NUMBER OF NODES:::           4
 DOFs:::           2
 TOTAL DOF OF ELEMENT:::           12
 ************************************
          11
 AREA1  0.000000000000000E+000
 AREA2  0.000000000000000E+000
 U1x  =  0.000000000000000E+000
 U1y  =  0.000000000000000E+000
 Phi1 =  0.000000000000000E+000
 U2x  =  0.000000000000000E+000
 U2y  =  0.000000000000000E+000
 Phi2 =  0.000000000000000E+000
 U3x  =  0.000000000000000E+000
 U3y  =  0.000000000000000E+000
 Phi3 =  0.000000000000000E+000
 U4x  =  0.000000000000000E+000
 U4y  =  0.000000000000000E+000
 Phi4 =  0.000000000000000E+000
 ***********************************
 CURRENT ELEMENT NUMBER::::          12
 NUMBER OF NODES:::           4
 DOFs:::           2
 TOTAL DOF OF ELEMENT:::           12
 ************************************
          12
 AREA1  0.000000000000000E+000
 AREA2  0.000000000000000E+000
 U1x  =  0.000000000000000E+000
 U1y  =  0.000000000000000E+000
 Phi1 =  0.000000000000000E+000
 U2x  =  0.000000000000000E+000
 U2y  =  0.000000000000000E+000
 Phi2 =  0.000000000000000E+000
 U3x  =  0.000000000000000E+000
 U3y  =  0.000000000000000E+000
 Phi3 =  0.000000000000000E+000
 U4x  =  0.000000000000000E+000
 U4y  =  0.000000000000000E+000
 Phi4 =  0.000000000000000E+000
 ***********************************
 CURRENT ELEMENT NUMBER::::          13
 NUMBER OF NODES:::           4
 DOFs:::           2
 TOTAL DOF OF ELEMENT:::           12
 ************************************
          13
 AREA1  0.000000000000000E+000
 AREA2  0.000000000000000E+000
 U1x  =  0.000000000000000E+000
 U1y  =  0.000000000000000E+000
 Phi1 =  0.000000000000000E+000
 U2x  =  0.000000000000000E+000
 U2y  =  0.000000000000000E+000
 Phi2 =  0.000000000000000E+000
 U3x  =  0.000000000000000E+000
 U3y  =  0.000000000000000E+000
 Phi3 =  0.000000000000000E+000
 U4x  =  0.000000000000000E+000
 U4y  =  0.000000000000000E+000
 Phi4 =  0.000000000000000E+000
 ***********************************
 CURRENT ELEMENT NUMBER::::          14
 NUMBER OF NODES:::           4
 DOFs:::           2
 TOTAL DOF OF ELEMENT:::           12
 ************************************
          14
 AREA1  0.000000000000000E+000
 AREA2  0.000000000000000E+000
 U1x  =  0.000000000000000E+000
 U1y  =  0.000000000000000E+000
 Phi1 =  0.000000000000000E+000
 U2x  =  0.000000000000000E+000
 U2y  =  0.000000000000000E+000
 Phi2 =  0.000000000000000E+000
 U3x  =  0.000000000000000E+000
 U3y  =  0.000000000000000E+000
 Phi3 =  0.000000000000000E+000
 U4x  =  0.000000000000000E+000
 U4y  =  0.000000000000000E+000
 Phi4 =  0.000000000000000E+000
 ***********************************
 CURRENT ELEMENT NUMBER::::          15
 NUMBER OF NODES:::           4
 DOFs:::           2
 TOTAL DOF OF ELEMENT:::           12
 ************************************
          15
 AREA1  0.000000000000000E+000
 AREA2  0.000000000000000E+000
 U1x  =  0.000000000000000E+000
 U1y  =  0.000000000000000E+000
 Phi1 =  0.000000000000000E+000
 U2x  =  0.000000000000000E+000
 U2y  =  0.000000000000000E+000
 Phi2 =  0.000000000000000E+000
 U3x  =  0.000000000000000E+000
 U3y  =  0.000000000000000E+000
 Phi3 =  0.000000000000000E+000
 U4x  =  0.000000000000000E+000
 U4y  =  0.000000000000000E+000
 Phi4 =  0.000000000000000E+000
 ***********************************
 CURRENT ELEMENT NUMBER::::          16
 NUMBER OF NODES:::           4
 DOFs:::           2
 TOTAL DOF OF ELEMENT:::           12
 ************************************
          16
 AREA1  0.000000000000000E+000
 AREA2  0.000000000000000E+000
 U1x  =  0.000000000000000E+000
 U1y  =  0.000000000000000E+000
 Phi1 =  0.000000000000000E+000
 U2x  =  0.000000000000000E+000
 U2y  =  0.000000000000000E+000
 Phi2 =  0.000000000000000E+000
 U3x  =  0.000000000000000E+000
 U3y  =  0.000000000000000E+000
 Phi3 =  0.000000000000000E+000
 U4x  =  0.000000000000000E+000
 U4y  =  0.000000000000000E+000
 Phi4 =  0.000000000000000E+000
 ***********************************
 CURRENT ELEMENT NUMBER::::          17
 NUMBER OF NODES:::           4
 DOFs:::           2
 TOTAL DOF OF ELEMENT:::           12
 ************************************
          17
 AREA1  0.000000000000000E+000
 AREA2  0.000000000000000E+000
 U1x  =  0.000000000000000E+000
 U1y  =  0.000000000000000E+000
 Phi1 =  0.000000000000000E+000
 U2x  =  0.000000000000000E+000
 U2y  =  0.000000000000000E+000
 Phi2 =  0.000000000000000E+000
 U3x  =  0.000000000000000E+000
 U3y  =  0.000000000000000E+000
 Phi3 =  0.000000000000000E+000
 U4x  =  0.000000000000000E+000
 U4y  =  0.000000000000000E+000
 Phi4 =  0.000000000000000E+000
 ***********************************
 CURRENT ELEMENT NUMBER::::          18
 NUMBER OF NODES:::           4
 DOFs:::           2
 TOTAL DOF OF ELEMENT:::           12
 ************************************
          18
 AREA1  0.000000000000000E+000
 AREA2  0.000000000000000E+000
 U1x  =  0.000000000000000E+000
 U1y  =  0.000000000000000E+000
 Phi1 =  0.000000000000000E+000
 U2x  =  0.000000000000000E+000
 U2y  =  0.000000000000000E+000
 Phi2 =  0.000000000000000E+000
 U3x  =  0.000000000000000E+000
 U3y  =  0.000000000000000E+000
 Phi3 =  0.000000000000000E+000
 U4x  =  0.000000000000000E+000
 U4y  =  0.000000000000000E+000
 Phi4 =  0.000000000000000E+000
 ***********************************
 CURRENT ELEMENT NUMBER::::          19
 NUMBER OF NODES:::           4
 DOFs:::           2
 TOTAL DOF OF ELEMENT:::           12
 ************************************
          19
 AREA1  0.000000000000000E+000
 AREA2  0.000000000000000E+000
 U1x  =  0.000000000000000E+000
 U1y  =  0.000000000000000E+000
 Phi1 =  0.000000000000000E+000
 U2x  =  0.000000000000000E+000
 U2y  =  0.000000000000000E+000
 Phi2 =  0.000000000000000E+000
 U3x  =  0.000000000000000E+000
 U3y  =  0.000000000000000E+000
 Phi3 =  0.000000000000000E+000
 U4x  =  0.000000000000000E+000
 U4y  =  0.000000000000000E+000
 Phi4 =  0.000000000000000E+000
 ***********************************
 CURRENT ELEMENT NUMBER::::          20
 NUMBER OF NODES:::           4
 DOFs:::           2
 TOTAL DOF OF ELEMENT:::           12
 ************************************
          20
 AREA1  0.000000000000000E+000
 AREA2  0.000000000000000E+000
 U1x  =  0.000000000000000E+000
 U1y  =  0.000000000000000E+000
 Phi1 =  0.000000000000000E+000
 U2x  =  0.000000000000000E+000
 U2y  =  0.000000000000000E+000
 Phi2 =  0.000000000000000E+000
 U3x  =  0.000000000000000E+000
 U3y  =  0.000000000000000E+000
 Phi3 =  0.000000000000000E+000
 U4x  =  0.000000000000000E+000
 U4y  =  0.000000000000000E+000
 Phi4 =  0.000000000000000E+000
 ***********************************
 CURRENT ELEMENT NUMBER::::          21
 NUMBER OF NODES:::           4
 DOFs:::           2
 TOTAL DOF OF ELEMENT:::           12
 ************************************
          21
 AREA1  0.000000000000000E+000
 AREA2  0.000000000000000E+000
 U1x  =  0.000000000000000E+000
 U1y  =  0.000000000000000E+000
 Phi1 =  0.000000000000000E+000
 U2x  =  0.000000000000000E+000
 U2y  =  0.000000000000000E+000
 Phi2 =  0.000000000000000E+000
 U3x  =  0.000000000000000E+000
 U3y  =  0.000000000000000E+000
 Phi3 =  0.000000000000000E+000
 U4x  =  0.000000000000000E+000
 U4y  =  0.000000000000000E+000
 Phi4 =  0.000000000000000E+000
 ***********************************
 CURRENT ELEMENT NUMBER::::          22
 NUMBER OF NODES:::           4
 DOFs:::           2
 TOTAL DOF OF ELEMENT:::           12
 ************************************
          22
 AREA1  0.000000000000000E+000
 AREA2  0.000000000000000E+000
 U1x  =  0.000000000000000E+000
 U1y  =  0.000000000000000E+000
 Phi1 =  0.000000000000000E+000
 U2x  =  0.000000000000000E+000
 U2y  =  0.000000000000000E+000
 Phi2 =  0.000000000000000E+000
 U3x  =  0.000000000000000E+000
 U3y  =  0.000000000000000E+000
 Phi3 =  0.000000000000000E+000
 U4x  =  0.000000000000000E+000
 U4y  =  0.000000000000000E+000
 Phi4 =  0.000000000000000E+000
 ***********************************
 CURRENT ELEMENT NUMBER::::          23
 NUMBER OF NODES:::           4
 DOFs:::           2
 TOTAL DOF OF ELEMENT:::           12
 ************************************
          23
 AREA1  0.000000000000000E+000
 AREA2  0.000000000000000E+000
 U1x  =  0.000000000000000E+000
 U1y  =  0.000000000000000E+000
 Phi1 =  0.000000000000000E+000
 U2x  =  0.000000000000000E+000
 U2y  =  0.000000000000000E+000
 Phi2 =  0.000000000000000E+000
 U3x  =  0.000000000000000E+000
 U3y  =  0.000000000000000E+000
 Phi3 =  0.000000000000000E+000
 U4x  =  0.000000000000000E+000
 U4y  =  0.000000000000000E+000
 Phi4 =  0.000000000000000E+000
 ***********************************
 CURRENT ELEMENT NUMBER::::          24
 NUMBER OF NODES:::           4
 DOFs:::           2
 TOTAL DOF OF ELEMENT:::           12
 ************************************
          24
 AREA1  0.000000000000000E+000
 AREA2  0.000000000000000E+000
 U1x  =  0.000000000000000E+000
 U1y  =  0.000000000000000E+000
 Phi1 =  0.000000000000000E+000
 U2x  =  0.000000000000000E+000
 U2y  =  0.000000000000000E+000
 Phi2 =  0.000000000000000E+000
 U3x  =  0.000000000000000E+000
 U3y  =  0.000000000000000E+000
 Phi3 =  0.000000000000000E+000
 U4x  =  0.000000000000000E+000
 U4y  =  0.000000000000000E+000
 Phi4 =  0.000000000000000E+000
 ***********************************
 CURRENT ELEMENT NUMBER::::          25
 NUMBER OF NODES:::           4
 DOFs:::           2
 TOTAL DOF OF ELEMENT:::           12
 ************************************
          25
 AREA1  0.000000000000000E+000
 AREA2  0.000000000000000E+000
 U1x  =  0.000000000000000E+000
 U1y  =  0.000000000000000E+000
 Phi1 =  0.000000000000000E+000
 U2x  =  0.000000000000000E+000
 U2y  =  0.000000000000000E+000
 Phi2 =  0.000000000000000E+000
 U3x  =  0.000000000000000E+000
 U3y  =  0.000000000000000E+000
 Phi3 =  0.000000000000000E+000
 U4x  =  0.000000000000000E+000
 U4y  =  0.000000000000000E+000
 Phi4 =  0.000000000000000E+000
 ***********************************
 CURRENT ELEMENT NUMBER::::          26
 NUMBER OF NODES:::           4
 DOFs:::           2
 TOTAL DOF OF ELEMENT:::           12
 ************************************
          26
 AREA1  0.000000000000000E+000
 AREA2  0.000000000000000E+000
 U1x  =  0.000000000000000E+000
 U1y  =  0.000000000000000E+000
 Phi1 =  0.000000000000000E+000
 U2x  =  0.000000000000000E+000
 U2y  =  0.000000000000000E+000
 Phi2 =  0.000000000000000E+000
 U3x  =  0.000000000000000E+000
 U3y  =  0.000000000000000E+000
 Phi3 =  0.000000000000000E+000
 U4x  =  0.000000000000000E+000
 U4y  =  0.000000000000000E+000
 Phi4 =  0.000000000000000E+000
 ***********************************
 CURRENT ELEMENT NUMBER::::          27
 NUMBER OF NODES:::           4
 DOFs:::           2
 TOTAL DOF OF ELEMENT:::           12
 ************************************
          27
 AREA1  0.000000000000000E+000
 AREA2  0.000000000000000E+000
 U1x  =  0.000000000000000E+000
 U1y  =  0.000000000000000E+000
 Phi1 =  0.000000000000000E+000
 U2x  =  0.000000000000000E+000
 U2y  =  0.000000000000000E+000
 Phi2 =  0.000000000000000E+000
 U3x  =  0.000000000000000E+000
 U3y  =  0.000000000000000E+000
 Phi3 =  0.000000000000000E+000
 U4x  =  0.000000000000000E+000
 U4y  =  0.000000000000000E+000
 Phi4 =  0.000000000000000E+000
 ***********************************
 CURRENT ELEMENT NUMBER::::          28
 NUMBER OF NODES:::           4
 DOFs:::           2
 TOTAL DOF OF ELEMENT:::           12
 ************************************
          28
 AREA1  0.000000000000000E+000
 AREA2  0.000000000000000E+000
 U1x  =  0.000000000000000E+000
 U1y  =  0.000000000000000E+000
 Phi1 =  0.000000000000000E+000
 U2x  =  0.000000000000000E+000
 U2y  =  0.000000000000000E+000
 Phi2 =  0.000000000000000E+000
 U3x  =  0.000000000000000E+000
 U3y  =  0.000000000000000E+000
 Phi3 =  0.000000000000000E+000
 U4x  =  0.000000000000000E+000
 U4y  =  0.000000000000000E+000
 Phi4 =  0.000000000000000E+000
 ***********************************
 CURRENT ELEMENT NUMBER::::          29
 NUMBER OF NODES:::           4
 DOFs:::           2
 TOTAL DOF OF ELEMENT:::           12
 ************************************
          29
 AREA1  0.000000000000000E+000
 AREA2  0.000000000000000E+000
 U1x  =  0.000000000000000E+000
 U1y  =  0.000000000000000E+000
 Phi1 =  0.000000000000000E+000
 U2x  =  0.000000000000000E+000
 U2y  =  0.000000000000000E+000
 Phi2 =  0.000000000000000E+000
 U3x  =  0.000000000000000E+000
 U3y  =  0.000000000000000E+000
 Phi3 =  0.000000000000000E+000
 U4x  =  0.000000000000000E+000
 U4y  =  0.000000000000000E+000
 Phi4 =  0.000000000000000E+000
 ***********************************
 CURRENT ELEMENT NUMBER::::          30
 NUMBER OF NODES:::           4
 DOFs:::           2
 TOTAL DOF OF ELEMENT:::           12
 ************************************
          30
 AREA1  0.000000000000000E+000
 AREA2  0.000000000000000E+000
 U1x  =  0.000000000000000E+000
 U1y  =  0.000000000000000E+000
 Phi1 =  0.000000000000000E+000
 U2x  =  0.000000000000000E+000
 U2y  =  0.000000000000000E+000
 Phi2 =  0.000000000000000E+000
 U3x  =  0.000000000000000E+000
 U3y  =  0.000000000000000E+000
 Phi3 =  0.000000000000000E+000
 U4x  =  0.000000000000000E+000
 U4y  =  0.000000000000000E+000
 Phi4 =  0.000000000000000E+000
 ***********************************
 CURRENT ELEMENT NUMBER::::          31
 NUMBER OF NODES:::           4
 DOFs:::           2
 TOTAL DOF OF ELEMENT:::           12
 ************************************
          31
 AREA1  0.000000000000000E+000
 AREA2  0.000000000000000E+000
 U1x  =  0.000000000000000E+000
 U1y  =  0.000000000000000E+000
 Phi1 =  0.000000000000000E+000
 U2x  =  0.000000000000000E+000
 U2y  =  0.000000000000000E+000
 Phi2 =  0.000000000000000E+000
 U3x  =  0.000000000000000E+000
 U3y  =  0.000000000000000E+000
 Phi3 =  0.000000000000000E+000
 U4x  =  0.000000000000000E+000
 U4y  =  0.000000000000000E+000
 Phi4 =  0.000000000000000E+000
 ***********************************
 CURRENT ELEMENT NUMBER::::          32
 NUMBER OF NODES:::           4
 DOFs:::           2
 TOTAL DOF OF ELEMENT:::           12
 ************************************
          32
 AREA1  0.000000000000000E+000
 AREA2  0.000000000000000E+000
 U1x  =  0.000000000000000E+000
 U1y  =  0.000000000000000E+000
 Phi1 =  0.000000000000000E+000
 U2x  =  0.000000000000000E+000
 U2y  =  0.000000000000000E+000
 Phi2 =  0.000000000000000E+000
 U3x  =  0.000000000000000E+000
 U3y  =  0.000000000000000E+000
 Phi3 =  0.000000000000000E+000
 U4x  =  0.000000000000000E+000
 U4y  =  0.000000000000000E+000
 Phi4 =  0.000000000000000E+000
 ***********************************
 CURRENT ELEMENT NUMBER::::          33
 NUMBER OF NODES:::           4
 DOFs:::           2
 TOTAL DOF OF ELEMENT:::           12
 ************************************
          33
 AREA1  0.000000000000000E+000
 AREA2  0.000000000000000E+000
 U1x  =  0.000000000000000E+000
 U1y  =  0.000000000000000E+000
 Phi1 =  0.000000000000000E+000
 U2x  =  0.000000000000000E+000
 U2y  =  0.000000000000000E+000
 Phi2 =  0.000000000000000E+000
 U3x  =  0.000000000000000E+000
 U3y  =  0.000000000000000E+000
 Phi3 =  0.000000000000000E+000
 U4x  =  0.000000000000000E+000
 U4y  =  0.000000000000000E+000
 Phi4 =  0.000000000000000E+000
 ***********************************
 CURRENT ELEMENT NUMBER::::          34
 NUMBER OF NODES:::           4
 DOFs:::           2
 TOTAL DOF OF ELEMENT:::           12
 ************************************
          34
 AREA1  0.000000000000000E+000
 AREA2  0.000000000000000E+000
 U1x  =  0.000000000000000E+000
 U1y  =  0.000000000000000E+000
 Phi1 =  0.000000000000000E+000
 U2x  =  0.000000000000000E+000
 U2y  =  0.000000000000000E+000
 Phi2 =  0.000000000000000E+000
 U3x  =  0.000000000000000E+000
 U3y  =  0.000000000000000E+000
 Phi3 =  0.000000000000000E+000
 U4x  =  0.000000000000000E+000
 U4y  =  0.000000000000000E+000
 Phi4 =  0.000000000000000E+000
 ***********************************
 CURRENT ELEMENT NUMBER::::          35
 NUMBER OF NODES:::           4
 DOFs:::           2
 TOTAL DOF OF ELEMENT:::           12
 ************************************
          35
 AREA1  0.000000000000000E+000
 AREA2  0.000000000000000E+000
 U1x  =  0.000000000000000E+000
 U1y  =  0.000000000000000E+000
 Phi1 =  0.000000000000000E+000
 U2x  =  0.000000000000000E+000
 U2y  =  0.000000000000000E+000
 Phi2 =  0.000000000000000E+000
 U3x  =  0.000000000000000E+000
 U3y  =  0.000000000000000E+000
 Phi3 =  0.000000000000000E+000
 U4x  =  0.000000000000000E+000
 U4y  =  0.000000000000000E+000
 Phi4 =  0.000000000000000E+000
 ***********************************
 CURRENT ELEMENT NUMBER::::          36
 NUMBER OF NODES:::           4
 DOFs:::           2
 TOTAL DOF OF ELEMENT:::           12
 ************************************
          36
 AREA1  0.000000000000000E+000
 AREA2  0.000000000000000E+000
 U1x  =  0.000000000000000E+000
 U1y  =  0.000000000000000E+000
 Phi1 =  0.000000000000000E+000
 U2x  =  0.000000000000000E+000
 U2y  =  0.000000000000000E+000
 Phi2 =  0.000000000000000E+000
 U3x  =  0.000000000000000E+000
 U3y  =  0.000000000000000E+000
 Phi3 =  0.000000000000000E+000
 U4x  =  0.000000000000000E+000
 U4y  =  0.000000000000000E+000
 Phi4 =  0.000000000000000E+000
 ***********************************
 CURRENT ELEMENT NUMBER::::          37
 NUMBER OF NODES:::           4
 DOFs:::           2
 TOTAL DOF OF ELEMENT:::           12
 ************************************
          37
 AREA1  0.000000000000000E+000
 AREA2  0.000000000000000E+000
 U1x  =  0.000000000000000E+000
 U1y  =  0.000000000000000E+000
 Phi1 =  0.000000000000000E+000
 U2x  =  0.000000000000000E+000
 U2y  =  0.000000000000000E+000
 Phi2 =  0.000000000000000E+000
 U3x  =  0.000000000000000E+000
 U3y  =  0.000000000000000E+000
 Phi3 =  0.000000000000000E+000
 U4x  =  0.000000000000000E+000
 U4y  =  0.000000000000000E+000
 Phi4 =  0.000000000000000E+000
 ***********************************
 CURRENT ELEMENT NUMBER::::          38
 NUMBER OF NODES:::           4
 DOFs:::           2
 TOTAL DOF OF ELEMENT:::           12
 ************************************
          38
 AREA1  0.000000000000000E+000
 AREA2  0.000000000000000E+000
 U1x  =  0.000000000000000E+000
[...]
          45
 AREA1 -5.868162394072129E-002
 AREA2  1.434601539689595E-002
 U1x  =  2.141586367830653E-004
 U1y  =  1.288409365552820E-004
 Phi1 =   524.327178856621     
 U2x  =  2.329592203544534E-004
 U2y  =  2.137094962251669E-004
 Phi2 =   758.374201339874     
 U3x  =  1.851614158012508E-004
 U3y  =  2.309835650717375E-004
 Phi3 =   748.300216337396     
 U4x  =  1.653050455755725E-004
 U4y  =  1.347912963351021E-004
 Phi4 =   478.514072833669     
 ***********************************
 CURRENT ELEMENT NUMBER::::          46
 NUMBER OF NODES:::           4
 DOFs:::           2
 TOTAL DOF OF ELEMENT:::           12
 ************************************
          46
 AREA1  -6.93116002562935     
 AREA2 -2.166024761842067E-002
 U1x  =  1.452466126138960E-004
 U1y  = -1.584939231093273E-004
 Phi1 =  -243.776868035386     
 U2x  =  1.709255948655127E-004
 U2y  = -1.763587007648832E-004
 Phi2 =  -231.939147850194     
 U3x  =  1.995852042654911E-004
 U3y  = -7.692186221107565E-005
 Phi3 =   28.8053138175958     
 U4x  =  1.667170286376601E-004
 U4y  = -5.102317710978765E-005
 Phi4 =   31.9096132227316     
 ***********************************
 CURRENT ELEMENT NUMBER::::          47
 NUMBER OF NODES:::           4
 DOFs:::           2
 TOTAL DOF OF ELEMENT:::           12
 ************************************
          47
 AREA1  -6.56837359814209     
 AREA2  3.284106839520717E-002
 U1x  =  6.066310552239871E-005
 U1y  =  2.363354152976290E-006
 Phi1 =   41.2940446155755     
 U2x  =  5.338048327960266E-005
 U2y  = -9.393483216756463E-005
 Phi2 =  -211.432141678281     
 U3x  =  7.820938319788478E-005
 U3y  = -8.883170795177063E-005
 Phi3 =  -176.869008384686     
 U4x  =  8.758877927589883E-005
 U4y  = -1.625016601683523E-006
 Phi4 =   52.0647583569195     
 ***********************************
 CURRENT ELEMENT NUMBER::::          48
 NUMBER OF NODES:::           4
 DOFs:::           2
 TOTAL DOF OF ELEMENT:::           12
 ************************************
          48
 AREA1 -0.178860121183995     
 AREA2 -1.148351092726330E-002
 U1x  =  1.222752882634847E-004
 U1y  =  1.644471546569424E-004
 Phi1 =   513.443696410109     
 U2x  =  1.653050455755725E-004
 U2y  =  1.347912963351021E-004
 Phi2 =   478.514072833669     
 U3x  =  1.851614158012508E-004
 U3y  =  2.309835650717375E-004
 Phi3 =   748.300216337396     
 U4x  =  1.381048786366771E-004
 U4y  =  2.492129471816162E-004
 Phi4 =   754.074393023514     
 ***********************************
 CURRENT ELEMENT NUMBER::::          49
 NUMBER OF NODES:::           4
 DOFs:::           2
 TOTAL DOF OF ELEMENT:::           12
 ************************************
          49
 AREA1  -6.57922023845911     
 AREA2 -3.816408838729757E-002
 U1x  =  8.758877927589883E-005
 U1y  = -1.625016601683523E-006
 Phi1 =   52.0647583569195     
 U2x  =  7.820938319788478E-005
 U2y  = -8.883170795177063E-005
 Phi2 =  -176.869008384686     
 U3x  =  9.686988152294956E-005
 U3y  = -7.568225252846819E-005
 Phi3 =  -123.563161597223     
 U4x  =  1.099429522205699E-004
 U4y  = -1.496810314950438E-005
 Phi4 =   40.6100557809558     
 ***********************************
 CURRENT ELEMENT NUMBER::::          50
 NUMBER OF NODES:::           4
 DOFs:::           2
 TOTAL DOF OF ELEMENT:::           12
 ************************************
          50
 AREA1  -5.78941692136448     
 AREA2  7.791585842367255E-002
 U1x  =  1.491727659291658E-004
 U1y  =  9.935891259028570E-006
 Phi1 =   149.025600998197     
 U2x  =  1.258501874171084E-004
 U2y  = -4.640569384511859E-005
 Phi2 =  -16.1620721091423     
 U3x  =  1.374068363754953E-004
 U3y  = -7.839953256772051E-005
 Phi3 =  -75.3781872504040     
 U4x  =  1.667170286376601E-004
 U4y  = -5.102317710978765E-005
 Phi4 =   31.9096132227316     
 ***********************************
 CURRENT ELEMENT NUMBER::::          51
 NUMBER OF NODES:::           4
 DOFs:::           2
 TOTAL DOF OF ELEMENT:::           12
 ************************************
          51
 AREA1  -6.88674147712469     
 AREA2 -1.513255744987418E-002
 U1x  =  3.098229102336728E-005
 U1y  =  2.424034951587363E-006
 Phi1 =   26.3995626588799     
 U2x  =  2.697307583376492E-005
 U2y  = -9.437104053283860E-005
 Phi2 =  -227.957613949120     
 U3x  =  5.338048327960266E-005
 U3y  = -9.393483216756463E-005
 Phi3 =  -211.432141678281     
 U4x  =  6.066310552239871E-005
 U4y  =  2.363354152976290E-006
 Phi4 =   41.2940446155755     
 ***********************************
 CURRENT ELEMENT NUMBER::::          52
 NUMBER OF NODES:::           4
 DOFs:::           2
 TOTAL DOF OF ELEMENT:::           12
 ************************************
          52
 AREA1  -8.99362671698362     
 AREA2  6.085397096398992E-003
 U1x  =  4.780547196899648E-005
 U1y  = -1.933021487654226E-004
 Phi1 =  -465.088353531105     
 U2x  =  7.679092366486646E-005
 U2y  = -1.891702419464598E-004
 Phi2 =  -422.999231584177     
 U3x  =  7.820938319788478E-005
 U3y  = -8.883170795177063E-005
 Phi3 =  -176.869008384686     
 U4x  =  5.338048327960266E-005
 U4y  = -9.393483216756463E-005
 Phi4 =  -211.432141678281     
 ***********************************
 CURRENT ELEMENT NUMBER::::          53
 NUMBER OF NODES:::           4
 DOFs:::           2
 TOTAL DOF OF ELEMENT:::           12
 ************************************
          53
 AREA1  -2.15830016300480     
 AREA2 -8.502138946653304E-003
 U1x  =  2.284101728851394E-004
 U1y  =  1.724173765685939E-005
 Phi1 =   284.879572013402     
 U2x  =  2.631413702069052E-004
 U2y  = -1.510471832431148E-005
 Phi2 =   273.367973184247     
 U3x  =  2.945760026400117E-004
 U3y  =  7.402620197260485E-005
 Phi3 =   518.921950076019     
 U4x  =  2.550557558326727E-004
 U4y  =  1.048714314124207E-004
 Phi4 =   525.361480951472     
 ***********************************
 CURRENT ELEMENT NUMBER::::          54
 NUMBER OF NODES:::           4
 DOFs:::           2
 TOTAL DOF OF ELEMENT:::           12
 ************************************
          54
 AREA1  -2.07923508243319     
 AREA2  1.664898088068156E-002
 U1x  =  2.550557558326727E-004
 U1y  =  1.048714314124207E-004
 Phi1 =   525.361480951472     
 U2x  =  2.141586367830653E-004
 U2y  =  1.288409365552820E-004
 Phi2 =   524.327178856621     
 U3x  =  1.970465747099751E-004
 U3y  =  4.367304455783001E-005
 Phi3 =   296.768814297740     
 U4x  =  2.284101728851394E-004
 U4y  =  1.724173765685939E-005
 Phi4 =   284.879572013402     
 ***********************************
 CURRENT ELEMENT NUMBER::::          55
 NUMBER OF NODES:::           4
 DOFs:::           2
 TOTAL DOF OF ELEMENT:::           12
 ************************************
          55
 AREA1  -9.26592751038655     
 AREA2  4.552016372926460E-003
 U1x  =  1.046656544697408E-004
 U1y  = -1.143113092932303E-004
 Phi1 =  -206.462217351882     
 U2x  =  7.679092366486646E-005
 U2y  = -1.891702419464598E-004
 Phi2 =  -422.999231584177     
 U3x  =  9.893334205046198E-005
 U3y  = -2.289700661007484E-004
 Phi3 =  -480.133734147320     
 U4x  =  1.212281531917102E-004
 U4y  = -1.446678120320821E-004
 Phi4 =  -253.274114705677     
 ***********************************
 CURRENT ELEMENT NUMBER::::          56
 NUMBER OF NODES:::           4
 DOFs:::           2
 TOTAL DOF OF ELEMENT:::           12
 ************************************
          56
 AREA1  -9.57796304790891     
 AREA2 -2.541468992419027E-002
 U1x  =  1.433092200525680E-004
 U1y  = -2.767204362705070E-004
 Phi1 =  -490.232077357534     
 U2x  =  1.709255948655127E-004
 U2y  = -1.763587007648832E-004
 Phi2 =  -231.939147850194     
 U3x  =  1.452466126138960E-004
 U3y  = -1.584939231093273E-004
 Phi3 =  -243.776868035386     
 U4x  =  1.207149050246490E-004
 U4y  = -2.530219123794542E-004
 Phi4 =  -490.461232150077     
 ***********************************
 CURRENT ELEMENT NUMBER::::          57
 NUMBER OF NODES:::           4
 DOFs:::           2
 TOTAL DOF OF ELEMENT:::           12
 ************************************
          57
 AREA1  -4.23540015012844     
 AREA2 -4.493940768936966E-002
 U1x  =  1.667170286376601E-004
 U1y  = -5.102317710978765E-005
 Phi1 =   31.9096132227316     
 U2x  =  1.970465747099751E-004
 U2y  =  4.367304455783001E-005
 Phi2 =   296.768814297740     
 U3x  =  1.718904841047666E-004
 U3y  =  6.263455061249157E-005
 Phi3 =   307.040032811634     
 U4x  =  1.491727659291658E-004
 U4y  =  9.935891259028570E-006
 Phi4 =   149.025600998197     
 ***********************************
 CURRENT ELEMENT NUMBER::::          58
 NUMBER OF NODES:::           4
 DOFs:::           2
 TOTAL DOF OF ELEMENT:::           12
 ************************************
          58
 AREA1  -4.57121630055680     
 AREA2 -5.540410026014797E-002
 U1x  =  1.099429522205699E-004
 U1y  = -1.496810314950438E-005
 Phi1 =   40.6100557809558     
 U2x  =  1.307472670551345E-004
 U2y  =  5.554342779245976E-005
 Phi2 =   240.178526236975     
 U3x  =  1.034509531315242E-004
 U3y  =  8.164750271961389E-005
 Phi3 =   280.171679629353     
 U4x  =  8.758877927589883E-005
 U4y  = -1.625016601683523E-006
 Phi4 =   52.0647583569195     
 ***********************************
 CURRENT ELEMENT NUMBER::::          59
 NUMBER OF NODES:::           4
 DOFs:::           2
 TOTAL DOF OF ELEMENT:::           12
 ************************************
          59
 AREA1  -11.5719016335866     
 AREA2  1.250026196569820E-002
 U1x  =  3.955305691577608E-005
 U1y  = -2.983707821622053E-004
 Phi1 =  -729.464610652215     
 U2x  =  4.780547196899648E-005
 U2y  = -1.933021487654226E-004
 Phi2 =  -465.088353531105     
 U3x  =  2.355877041649388E-005
 U3y  = -1.933398159297274E-004
 Phi3 =  -481.901642447297     
 U4x  =  1.919971600059831E-005
 U4y  = -2.950089611655033E-004
 Phi4 =  -738.025546878470     
 ***********************************
 CURRENT ELEMENT NUMBER::::          60
 NUMBER OF NODES:::           4
 DOFs:::           2
 TOTAL DOF OF ELEMENT:::           12
 ************************************
          60
 AREA1  -4.48442168066886     
 AREA2  6.208893774122259E-003
 U1x  =  7.029705609085837E-005
 U1y  =  9.219551962211489E-005
 Phi1 =   283.679401786434     
 U2x  =  6.066310552239871E-005
 U2y  =  2.363354152976290E-006
 Phi2 =   41.2940446155755     
 U3x  =  8.758877927589883E-005
 U3y  = -1.625016601683523E-006
 Phi3 =   52.0647583569195     
 U4x  =  1.034509531315242E-004
 U4y  =  8.164750271961389E-005
 Phi4 =   280.171679629353     
 ***********************************
 CURRENT ELEMENT NUMBER::::          61
 NUMBER OF NODES:::           4
 DOFs:::           2
 TOTAL DOF OF ELEMENT:::           12
 ************************************
          61
 AREA1  -2.43091360434509     
 AREA2 -3.082970505309390E-002
 U1x  =  1.222752882634847E-004
 U1y  =  1.644471546569424E-004
 Phi1 =   513.443696410109     
 U2x  =  1.034509531315242E-004
 U2y  =  8.164750271961389E-005
 Phi2 =   280.171679629353     
 U3x  =  1.307472670551345E-004
 U3y  =  5.554342779245976E-005
 Phi3 =   240.178526236975     
 U4x  =  1.653050455755725E-004
 U4y  =  1.347912963351021E-004
 Phi4 =   478.514072833669     
 ***********************************
 CURRENT ELEMENT NUMBER::::          62
 NUMBER OF NODES:::           4
 DOFs:::           2
 TOTAL DOF OF ELEMENT:::           12
 ************************************
          62
 AREA1  -4.51452697453878     
 AREA2  1.152439834235963E-002
 U1x  =  1.995852042654911E-004
 U1y  = -7.692186221107565E-005
 Phi1 =   28.8053138175958     
 U2x  =  2.284101728851394E-004
 U2y  =  1.724173765685939E-005
 Phi2 =   284.879572013402     
 U3x  =  1.970465747099751E-004
 U3y  =  4.367304455783001E-005
 Phi3 =   296.768814297740     
 U4x  =  1.667170286376601E-004
 U4y  = -5.102317710978765E-005
 Phi4 =   31.9096132227316     
 ***********************************
 CURRENT ELEMENT NUMBER::::          63
 NUMBER OF NODES:::           4
 DOFs:::           2
 TOTAL DOF OF ELEMENT:::           12
 ************************************
          63
 AREA1  -8.19668295421747     
 AREA2 -3.112760122093050E-003
 U1x  =  7.820938319788478E-005
 U1y  = -8.883170795177063E-005
 Phi1 =  -176.869008384686     
 U2x  =  7.679092366486646E-005
 U2y  = -1.891702419464598E-004
 Phi2 =  -422.999231584177     
 U3x  =  1.046656544697408E-004
 U3y  = -1.143113092932303E-004
 Phi3 =  -206.462217351882     
 U4x  =  9.686988152294956E-005
 U4y  = -7.568225252846819E-005
 Phi4 =  -123.563161597223     
 ***********************************
 CURRENT ELEMENT NUMBER::::          64
 NUMBER OF NODES:::           4
 DOFs:::           2
 TOTAL DOF OF ELEMENT:::           12
 ************************************
          64
 AREA1  -2.07403718178164     
 AREA2  9.202032905157864E-003
 U1x  =  2.141586367830653E-004
 U1y  =  1.288409365552820E-004
 Phi1 =   524.327178856621     
 U2x  =  1.653050455755725E-004
 U2y  =  1.347912963351021E-004
 Phi2 =   478.514072833669     
 U3x  =  1.718904841047666E-004
 U3y  =  6.263455061249157E-005
 Phi3 =   307.040032811634     
 U4x  =  1.970465747099751E-004
 U4y  =  4.367304455783001E-005
 Phi4 =   296.768814297740     
 ***********************************
 CURRENT ELEMENT NUMBER::::          65
 NUMBER OF NODES:::           4
 DOFs:::           2
 TOTAL DOF OF ELEMENT:::           12
 ************************************
          65
 AREA1  -9.38636008807631     
 AREA2  7.685050497689616E-002
 U1x  =  1.212281531917102E-004
 U1y  = -1.446678120320821E-004
 Phi1 =  -253.274114705677     
 U2x  =  9.893334205046198E-005
 U2y  = -2.289700661007484E-004
 Phi2 =  -480.133734147320     
 U3x  =  1.207149050246490E-004
 U3y  = -2.530219123794542E-004
 Phi3 =  -490.461232150077     
 U4x  =  1.452466126138960E-004
 U4y  = -1.584939231093273E-004
 Phi4 =  -243.776868035386     
 ***********************************
 CURRENT ELEMENT NUMBER::::          66
 NUMBER OF NODES:::           4
 DOFs:::           2
 TOTAL DOF OF ELEMENT:::           12
 ************************************
          66
 AREA1  -6.84041360678162     
 AREA2 -2.179203410051400E-003
 U1x  =  1.046656544697408E-004
 U1y  = -1.143113092932303E-004
 Phi1 =  -206.462217351882     
 U2x  =  1.258501874171084E-004
 U2y  = -4.640569384511859E-005
 Phi2 =  -16.1620721091423     
 U3x  =  1.099429522205699E-004
 U3y  = -1.496810314950438E-005
 Phi3 =   40.6100557809558     
 U4x  =  9.686988152294956E-005
 U4y  = -7.568225252846819E-005
 Phi4 =  -123.563161597223     
 ***********************************
 CURRENT ELEMENT NUMBER::::          67
 NUMBER OF NODES:::           4
 DOFs:::           2
 TOTAL DOF OF ELEMENT:::           12
 ************************************
          67
 AREA1  -7.25797015276140     
 AREA2 -1.225004119362438E-003
 U1x  =  1.374068363754953E-004
 U1y  = -7.839953256772051E-005
 Phi1 =  -75.3781872504040     
 U2x  =  1.212281531917102E-004
 U2y  = -1.446678120320821E-004
 Phi2 =  -253.274114705677     
 U3x  =  1.452466126138960E-004
 U3y  = -1.584939231093273E-004
 Phi3 =  -243.776868035386     
 U4x  =  1.667170286376601E-004
 U4y  = -5.102317710978765E-005
 Phi4 =   31.9096132227316     
 ***********************************
 CURRENT ELEMENT NUMBER::::          68
 NUMBER OF NODES:::           4
 DOFs:::           2
 TOTAL DOF OF ELEMENT:::           12
 ************************************
          68
 AREA1  -3.12528930404135     
 AREA2  3.023124771867458E-002
 U1x  =  1.718904841047666E-004
 U1y  =  6.263455061249157E-005
 Phi1 =   307.040032811634     
 U2x  =  1.653050455755725E-004
 U2y  =  1.347912963351021E-004
 Phi2 =   478.514072833669     
 U3x  =  1.307472670551345E-004
 U3y  =  5.554342779245976E-005
 Phi3 =   240.178526236975     
 U4x  =  1.491727659291658E-004
 U4y  =  9.935891259028570E-006
 Phi4 =   149.025600998197     
 ***********************************
 CURRENT ELEMENT NUMBER::::          69
 NUMBER OF NODES:::           4
 DOFs:::           2
 TOTAL DOF OF ELEMENT:::           12
 ************************************
          69
 AREA1  -7.26461423125471     
 AREA2  1.203574328518187E-002
 U1x  =  1.374068363754953E-004
 U1y  = -7.839953256772051E-005
 Phi1 =  -75.3781872504040     
 U2x  =  1.258501874171084E-004
 U2y  = -4.640569384511859E-005
 Phi2 =  -16.1620721091423     
 U3x  =  1.046656544697408E-004
 U3y  = -1.143113092932303E-004
 Phi3 =  -206.462217351882     
 U4x  =  1.212281531917102E-004
 U4y  = -1.446678120320821E-004
 Phi4 =  -253.274114705677     
 ***********************************
 CURRENT ELEMENT NUMBER::::          70
 NUMBER OF NODES:::           4
 DOFs:::           2
 TOTAL DOF OF ELEMENT:::           12
 ************************************
          70
 AREA1  -5.01426106603211     
 AREA2 -5.272237027973858E-003
 U1x  =  1.258501874171084E-004
 U1y  = -4.640569384511859E-005
 Phi1 =  -16.1620721091423     
 U2x  =  1.491727659291658E-004
 U2y  =  9.935891259028570E-006
 Phi2 =   149.025600998197     
 U3x  =  1.307472670551345E-004
 U3y  =  5.554342779245976E-005
 Phi3 =   240.178526236975     
 U4x  =  1.099429522205699E-004
 U4y  = -1.496810314950438E-005
 Phi4 =   40.6100557809558     

               CONVERGENCE CHECKS FOR EQUILIBRIUM ITERATION     1


 AVERAGE FORCE                      0.195       TIME AVG. FORCE       0.195    
 LARGEST RESIDUAL FORCE            -1.371E-14   AT NODE         59   DOF  2
 LARGEST INCREMENT OF DISP.        -5.432E-04   AT NODE          5   DOF  2
 LARGEST CORRECTION TO DISP.       -5.432E-04   AT NODE          5   DOF  2
          THE FORCE     EQUILIBRIUM RESPONSE WAS LINEAR IN THIS INCREMENT

 AVERAGE CHARGE                     3.290E-06   TIME AVG. CHARGE      3.290E-06
 LARGEST RESIDUAL CHARGE           -9.317E-21   AT NODE         21   DOF  9
 LARGEST INCREMENT OF E. POT.       1.000E+03   AT NODE          1   DOF  9
 LARGEST CORRECTION TO E. POT.      1.000E+03   AT NODE          1   DOF  9
          THE CHARGE    EQUILIBRIUM RESPONSE WAS LINEAR IN THIS INCREMENT

 ITERATION SUMMARY FOR THE INCREMENT:   1 TOTAL ITERATIONS, OF WHICH
   0 ARE SEVERE DISCONTINUITY ITERATIONS AND  1 ARE EQUILIBRIUM ITERATIONS.

 TIME INCREMENT COMPLETED   1.00    ,  FRACTION OF STEP COMPLETED   1.00    
 STEP TIME COMPLETED        1.00    ,  TOTAL TIME COMPLETED         1.00    


          THE ANALYSIS HAS BEEN COMPLETED



     ANALYSIS SUMMARY:
     TOTAL OF          1  INCREMENTS
                       0  CUTBACKS IN AUTOMATIC INCREMENTATION
                       1  ITERATIONS INCLUDING CONTACT ITERATIONS IF PRESENT
                       1  PASSES THROUGH THE EQUATION SOLVER OF WHICH 
                       1  INVOLVE MATRIX DECOMPOSITION, INCLUDING
                       0  DECOMPOSITION(S) OF THE MASS MATRIX
                       1  REORDERING OF EQUATIONS TO MINIMIZE WAVEFRONT
                       0  ADDITIONAL RESIDUAL EVALUATIONS FOR LINE SEARCHES
                       0  ADDITIONAL OPERATOR EVALUATIONS FOR LINE SEARCHES
                       1  WARNING MESSAGES DURING USER INPUT PROCESSING
                       0  WARNING MESSAGES DURING ANALYSIS
                       0  ANALYSIS WARNINGS ARE NUMERICAL PROBLEM MESSAGES
                       0  ANALYSIS WARNINGS ARE NEGATIVE EIGENVALUE MESSAGES
                       0  ERROR MESSAGES



     JOB TIME SUMMARY
       USER TIME (SEC)      =  0.10000    
       SYSTEM TIME (SEC)    =   0.0000    
       TOTAL CPU TIME (SEC) =  0.10000    
       WALLCLOCK TIME (SEC) =          0
