1

   Abaqus 3DEXPERIENCE R2018x                                  Date 19-May-2020   Time 12:15:54
   For use by Supplied by Team-SolidSQUAD under license from Dassault Systemes or its subsidiary.



                         The Abaqus Software is a product of:

                           Dassault Systemes SIMULIA Corp.
                           1301 Atwood Avenue, Suite 101W
                              Johnston, RI 02919, USA
 


                   The Abaqus Software is available only under license
                   from Dassault Systemes or its subsidiary and may be
                   used or reproduced only in accordance with the terms
                   of such license.
 
                          On machine DESKTOP-NVH18H4 
                          you are authorized to run
                          Abaqus/Standard until 31-Dec-2055

                          Your site id is:  


 
                    For assistance or any other information you may
                    obtain contact information for your local office
                    from the world wide web at:

                      http://www.3ds.com/products/simulia/locations/

 
                * * * * * * * * * * * * * * * * * * * * * * * * * * * * * * 
                *                                                         * 
                *                   *****************                     * 
                *                   *  N O T I C E  *                     * 
                *                   *****************                     * 
                *                                                         * 
                *                                                         * 
                *               Abaqus 3DEXPERIENCE R2018x                * 
                *                                                         * 
                *          BUILD ID: 2017_11_07-22.51.41 127140           * 
                *                                                         * 
                *                                                         * 
                *  Please make sure you are using                         * 
                *  release 3DEXPERIENCE R2018x manuals                    * 
                *  plus the notes accompanying this release.              * 
                *                                                         * 
                *                                                         * 
                *                                                         * 
                *                                                         * 
                * * * * * * * * * * * * * * * * * * * * * * * * * * * * * * 


 



     PROCESSING PART, INSTANCE, AND ASSEMBLY INFORMATION
   *******************************************************


     END PROCESSING PART, INSTANCE, AND ASSEMBLY INFORMATION
   ***********************************************************

1

   Abaqus 3DEXPERIENCE R2018x                                  Date 19-May-2020   Time 12:15:54
   For use by Supplied by Team-SolidSQUAD under license from Dassault Systemes or its subsidiary.

                                                                                     

                                             A B A Q U S   I N P U T   E C H O


                    *HEADING
                    Piezoelectric strip under Bending       
                    *PREPRINT, ECHO=YES, HISTORY=NO, MODEL=NO       
                    *NODE   
     LINE     5     1,0.0,-0.5      
                    2,0.125,-0.5    
                    3,0.25,-0.5     
                    4,0.375,-0.5    
                    5,0.5,-0.5      
     LINE    10     6,0.625,-0.5    
                    7,0.75,-0.5     
                    8,0.875,-0.5    
                    9,1.0,-0.5      
                    10,0.0,-0.375   
     LINE    15     11,0.125,-0.375 
                    12,0.25,-0.375  
                    13,0.375,-0.375 
                    14,0.5,-0.375   
                    15,0.625,-0.375 
     LINE    20     16,0.75,-0.375  
                    17,0.875,-0.375 
                    18,1.0,-0.375   
                    19,0.0,-0.25    
                    20,0.125,-0.25  
     LINE    25     21,0.25,-0.25   
                    22,0.375,-0.25  
                    23,0.5,-0.25    
                    24,0.625,-0.25  
                    25,0.75,-0.25   
     LINE    30     26,0.875,-0.25  
                    27,1.0,-0.25    
                    28,0.0,-0.125   
                    29,0.125,-0.125 
                    30,0.25,-0.125  
     LINE    35     31,0.375,-0.125 
                    32,0.5,-0.125   
                    33,0.625,-0.125 
                    34,0.75,-0.125  
                    35,0.875,-0.125 
     LINE    40     36,1.0,-0.125   
                    37,0.0,0.0      
                    38,0.125,0.0    
                    39,0.25,0.0     
                    40,0.375,0.0    
     LINE    45     41,0.5,0.0      
                    42,0.625,0.0    
                    43,0.75,0.0     
                    44,0.875,0.0    
                    45,1.0,0.0      
     LINE    50     46,0.0,0.125    
                    47,0.125,0.125  
                    48,0.25,0.125   
                    49,0.375,0.125  
                    50,0.5,0.125    
     LINE    55     51,0.625,0.125  
                    52,0.75,0.125   
                    53,0.875,0.125  
                    54,1.0,0.125    
                    55,0.0,0.25     
     LINE    60     56,0.125,0.25   
                    57,0.25,0.25    
                    58,0.375,0.25   
                    59,0.5,0.25     
                    60,0.625,0.25   
     LINE    65     61,0.75,0.25    
                    62,0.875,0.25   
                    63,1.0,0.25     
                    64,0.0,0.375    
                    65,0.125,0.375  
     LINE    70     66,0.25,0.375   
                    67,0.375,0.375  
                    68,0.5,0.375    
                    69,0.625,0.375  
                    70,0.75,0.375   
     LINE    75     71,0.875,0.375  
                    72,1.0,0.375    
                    73,0.0,0.5      
                    74,0.125,0.5    
                    75,0.25,0.5     
     LINE    80     76,0.375,0.5    
                    77,0.5,0.5      
                    78,0.625,0.5    
                    79,0.75,0.5     
                    80,0.875,0.5    
     LINE    85     81,1.0,0.5      
                    *USER ELEMENT, TYPE=U1, NODES=4, PROPERTIES=9,COORDINATES=2, VARIABLES=10       
                    1, 2, 9 
                    *ELEMENT, TYPE=U1, ELSET=EALL   
                    1,1,2,11,10     
     LINE    90     2,2,3,12,11     
                    3,3,4,13,12     
                    4,4,5,14,13     
                    5,5,6,15,14     
                    6,6,7,16,15     
     LINE    95     7,7,8,17,16     
                    8,8,9,18,17     
                    9,10,11,20,19   
                    10,11,12,21,20  
                    11,12,13,22,21  
     LINE   100     12,13,14,23,22  
                    13,14,15,24,23  
                    14,15,16,25,24  
                    15,16,17,26,25  
                    16,17,18,27,26  
     LINE   105     17,19,20,29,28  
                    18,20,21,30,29  
                    19,21,22,31,30  
                    20,22,23,32,31  
                    21,23,24,33,32  
     LINE   110     22,24,25,34,33  
                    23,25,26,35,34  
                    24,26,27,36,35  
                    25,28,29,38,37  
                    26,29,30,39,38  
     LINE   115     27,30,31,40,39  
                    28,31,32,41,40  
                    29,32,33,42,41  
                    30,33,34,43,42  
                    31,34,35,44,43  
     LINE   120     32,35,36,45,44  
                    33,37,38,47,46  
                    34,38,39,48,47  
                    35,39,40,49,48  
                    36,40,41,50,49  
     LINE   125     37,41,42,51,50  
                    38,42,43,52,51  
                    39,43,44,53,52  
                    40,44,45,54,53  
                    41,46,47,56,55  
     LINE   130     42,47,48,57,56  
                    43,48,49,58,57  
                    44,49,50,59,58  
                    45,50,51,60,59  
                    46,51,52,61,60  
     LINE   135     47,52,53,62,61  
                    48,53,54,63,62  
                    49,55,56,65,64  
                    50,56,57,66,65  
                    51,57,58,67,66  
     LINE   140     52,58,59,68,67  
                    53,59,60,69,68  
                    54,60,61,70,69  
                    55,61,62,71,70  
                    56,62,63,72,71  
     LINE   145     57,64,65,74,73  
                    58,65,66,75,74  
                    59,66,67,76,75  
                    60,67,68,77,76  
                    61,68,69,78,77  
     LINE   150     62,69,70,79,78  
                    63,70,71,80,79  
                    64,71,72,81,80  
                    *UEL PROPERTY, ELSET=EALL       
                    73382.57, 28182.03, 64014.58, 21052.63, -0.02316, -0.0278, 0.012, 1.53105e-8,   
     LINE   155     1.505e-8
                    *Nset, nset=Set_boundary
                    37      
                    *Nset, nset=left_nodes  
                    1, 10, 19, 28, 46, 55, 64, 73   
     LINE   160     *Nset, nset=Top_nodes   
                    73, 74, 75, 76, 77, 78, 79, 80, 
                    81      
                    *Nset, nset=Bottom_nodes
                    1, 2, 3, 4, 5, 6, 7, 8, 
     LINE   165     9       
                    *Nset, nset=Right_nodes 
                    9, 18, 27, 36, 45, 54, 63, 72,  
                    81      
                    *STEP   
     LINE   170     *STATIC 
                    1.,1.,1e-05,1.  
                    *BOUNDARY       
                    Set_boundary, 1, 1      
                    Set_boundary, 2, 2      
     LINE   175     left_nodes, 1, 1
                    Top_nodes, 9, 9, 1000.  
                    Bottom_nodes, 9, 9, -1000.      
                    9, 1, 1,0.00011765714285714285  
                    18, 1, 1,0.00015374285714285713 
     LINE   180     27, 1, 1,0.0001898285714285714  
                    36, 1, 1,0.0002259142857142857  
                    45, 1, 1,0.00026199999999999997 
                    54, 1, 1,0.00029808571428571425 
                    63, 1, 1,0.00033417142857142853 
     LINE   185     72, 1, 1,0.0003702571428571428  
                    81, 1, 1,0.0004063428571428571  
                    *OUTPUT,FIELD   
                    *ENERGY FILE    
                    *OUTPUT,HISTORY,FREQUENCY=1     
     LINE   190     *ENERGY OUTPUT,VARIABLE=PRESELECT       
                    *NODE FILE      
                    U,COORD 
                    *OUTPUT,FIELD   
                    *NODE OUTPUT    
     LINE   195     U,COORD, EPOT   
                    *NODE PRINT     
                    U,COORD,EPOT    
                    *EL PRINT       
                    SDV     
     LINE   200     *END STEP       
                    --------------------------------------------------------------------------------
                        5   10   15   20   25   30   35   40   45   50   55   60   65   70   75   80
                    --------------------------------------------------------------------------------



     OPTIONS BEING PROCESSED
   ***************************


  *USER ELEMENT, TYPE=U1, NODES=4, PROPERTIES=9,COORDINATES=2, VARIABLES=10
  *HEADING
          Piezoelectric strip under Bending                                                                                                                                                                                                                               
  *NODE
  *ELEMENT, TYPE=U1, ELSET=EALL
  *Nset, nset=Set_boundary
  *Nset, nset=left_nodes
  *Nset, nset=Top_nodes
  *Nset, nset=Bottom_nodes
  *Nset, nset=Right_nodes

 ***WARNING: BUILT-IN PIEZOELECTRIC ELEMENTS CANNOT BE USED WITH BUILT-IN 
             COUPLED THERMAL-ELECRICAL ELEMENTS OR BUILT-IN COUPLED 
             THERMAL-ELECRICAL-STRUCTURAL ELEMENTS
  *USER ELEMENT, TYPE=U1, NODES=4, PROPERTIES=9,COORDINATES=2, VARIABLES=10
  *BOUNDARY
  *BOUNDARY
  *UEL PROPERTY, ELSET=EALL
  *OUTPUT,FIELD
  *OUTPUT,HISTORY,FREQUENCY=1
  *OUTPUT,FIELD
  *OUTPUT,FIELD
  *OUTPUT,HISTORY,FREQUENCY=1
  *OUTPUT,FIELD
  *OUTPUT,FIELD
  *OUTPUT,HISTORY,FREQUENCY=1
  *OUTPUT,FIELD
  *STEP
  *OUTPUT,FIELD
  *OUTPUT,HISTORY,FREQUENCY=1
  *OUTPUT,FIELD
  *STEP
  *STEP
  *STATIC
  *BOUNDARY
  *OUTPUT,FIELD
  *ENERGY FILE
  *OUTPUT,HISTORY,FREQUENCY=1
  *ENERGY OUTPUT,VARIABLE=PRESELECT
  *NODE FILE
  *OUTPUT,FIELD
  *NODE OUTPUT
  *NODE PRINT
  *EL PRINT
  *END STEP
  *STEP
  *STATIC
  *BOUNDARY
  *END STEP



                            P R O B L E M   S I Z E


          NUMBER OF ELEMENTS IS                                    64
          NUMBER OF NODES IS                                       81
          NUMBER OF NODES DEFINED BY THE USER                      81
          TOTAL NUMBER OF VARIABLES IN THE MODEL                  243
          (DEGREES OF FREEDOM PLUS MAX NO. OF ANY LAGRANGE MULTIPLIER
           VARIABLES. INCLUDE *PRINT,SOLVE=YES TO GET THE ACTUAL NUMBER.)



                              END OF USER INPUT PROCESSING



     JOB TIME SUMMARY
       USER TIME (SEC)      =  0.20000    
       SYSTEM TIME (SEC)    =  0.20000    
       TOTAL CPU TIME (SEC) =  0.40000    
       WALLCLOCK TIME (SEC) =          1
1

   Abaqus 3DEXPERIENCE R2018x                                  Date 19-May-2020   Time 12:15:58
   For use by Supplied by Team-SolidSQUAD under license from Dassault Systemes or its subsidiary.

     Piezoelectric strip under Bending                                                         STEP    1  INCREMENT    1
                                                                                          TIME COMPLETED IN THIS STEP   0.00    


                        S T E P       1     S T A T I C   A N A L Y S I S


                                                                                          

     AUTOMATIC TIME CONTROL WITH -
          A SUGGESTED INITIAL TIME INCREMENT OF                 1.00    
          AND A TOTAL TIME PERIOD OF                            1.00    
          THE MINIMUM TIME INCREMENT ALLOWED IS                1.000E-05
          THE MAXIMUM TIME INCREMENT ALLOWED IS                 1.00    

     LINEAR EQUATION SOLVER TYPE         DIRECT SPARSE
  
                   M E M O R Y   E S T I M A T E
  
 PROCESS      FLOATING PT       MINIMUM MEMORY        MEMORY TO
              OPERATIONS           REQUIRED          MINIMIZE I/O
             PER ITERATION           (MB)               (MB)
  
     1          1.83E+05               17                 24
  
 NOTE:
      (1) SINCE ABAQUS DOES NOT PRE-ALLOCATE MEMORY AND ONLY ALLOCATES MEMORY AS NEEDED DURING THE ANALYSIS,
          THE MEMORY REQUIREMENT PRINTED HERE CAN ONLY BE VIEWED AS A GENERAL GUIDELINE BASED ON THE BEST
          KNOWLEDGE AVAILABLE AT THE BEGINNING OF A STEP BEFORE THE SOLUTION PROCESS HAS BEGUN.
      (2) THE ESTIMATE IS NORMALLY UPDATED AT THE BEGINNING OF EVERY STEP. IT IS THE MAXIMUM VALUE OF THE
          ESTIMATE FROM THE CURRENT STEP TO THE LAST STEP OF THE ANALYSIS, WITH UNSYMMETRIC SOLUTION TAKEN
          INTO ACCOUNT IF APPLICABLE. 
      (3) SINCE THE ESTIMATE IS BASED ON THE ACTIVE DEGREES OF FREEDOM IN THE FIRST ITERATION OF THE 
          CURRENT STEP, THE MEMORY ESTIMATE MIGHT BE SIGNIFICANTLY DIFFERENT THAN ACTUAL USAGE FOR 
          PROBLEMS WITH SUBSTANTIAL CHANGES IN ACTIVE DEGREES OF FREEDOM BETWEEN STEPS (OR EVEN WITHIN
          THE SAME STEP). EXAMPLES ARE: PROBLEMS WITH SIGNIFICANT CONTACT CHANGES, PROBLEMS WITH MODEL
          CHANGE, PROBLEMS WITH BOTH STATIC STEP AND STEADY STATE DYNAMIC PROCEDURES WHERE ACOUSTIC 
          ELEMENTS WILL ONLY BE ACTIVATED IN THE STEADY STATE DYNAMIC STEPS.
      (4) FOR MULTI-PROCESS EXECUTION, THE ESTIMATED VALUE OF FLOATING POINT OPERATIONS FOR EACH PROCESS
          IS BASED ON AN INITIAL SCHEDULING OF OPERATIONS AND MIGHT NOT REFLECT THE ACTUAL FLOATING 
          POINT OPERATIONS COMPLETED ON EACH PROCESS. OPERATIONS ARE DYNAMICALLY BALANCED DURING EXECUTION, 
          SO THE ACTUAL BALANCE OF OPERATIONS BETWEEN PROCESSES IS EXPECTED TO BE BETTER THAN THE ESTIMATE
          PRINTED HERE.
      (5) THE UPPER LIMIT OF MEMORY THAT CAN BE ALLOCATED BY ABAQUS WILL IN GENERAL DEPEND ON THE VALUE OF
          THE "MEMORY" PARAMETER AND THE AMOUNT OF PHYSICAL MEMORY AVAILABLE ON THE MACHINE. PLEASE SEE
          THE "ABAQUS ANALYSIS USER'S MANUAL" FOR MORE DETAILS. THE ACTUAL USAGE OF MEMORY AND OF DISK
          SPACE FOR SCRATCH DATA WILL DEPEND ON THIS UPPER LIMIT AS WELL AS THE MEMORY REQUIRED TO MINIMIZE
          I/O. IF THE MEMORY UPPER LIMIT IS GREATER THAN THE MEMORY REQUIRED TO MINIMIZE I/O, THEN THE ACTUAL
          MEMORY USAGE WILL BE CLOSE TO THE ESTIMATED "MEMORY TO MINIMIZE I/O" VALUE, AND THE SCRATCH DISK
          USAGE WILL BE CLOSE-TO-ZERO; OTHERWISE, THE ACTUAL MEMORY USED WILL BE CLOSE TO THE PREVIOUSLY
          MENTIONED MEMORY LIMIT, AND THE SCRATCH DISK USAGE WILL BE ROUGHLY PROPORTIONAL TO THE DIFFERENCE
          BETWEEN THE ESTIMATED "MEMORY TO MINIMIZE I/O" AND THE MEMORY UPPER LIMIT. HOWEVER ACCURATE
          ESTIMATE OF THE SCRATCH DISK SPACE IS NOT POSSIBLE.
      (6) USING "*RESTART, WRITE" CAN GENERATE A LARGE AMOUNT OF DATA WRITTEN IN THE WORK DIRECTORY.


                                INCREMENT     1 SUMMARY


 TIME INCREMENT COMPLETED   1.00    ,  FRACTION OF STEP COMPLETED   1.00    
 STEP TIME COMPLETED        1.00    ,  TOTAL TIME COMPLETED         1.00    



                                                  E L E M E N T   O U T P U T





   THE FOLLOWING TABLE IS PRINTED FOR ALL ELEMENTS WITH TYPE U1 AT THE INTEGRATION POINTS

    ELEMENT  PT FOOT-       SDV1        SDV2        SDV3        SDV4        SDV5        SDV6        SDV7        SDV8        SDV9        
                NOTE 

           1   1         -14.12      1.4211E-14  1.3906E-15  1.3570E-04  8.3090E-04  3.2526E-19  -1487.       2231.     -2.2771E-05
           2   1         -14.12      7.1054E-15  2.2825E-14  1.3570E-04  8.3090E-04  1.0842E-18  -1487.       2231.     -2.2771E-05
           3   1         -14.12     -1.4211E-14 -2.2825E-15  1.3570E-04  8.3090E-04 -1.0842E-19  -1487.       2231.     -2.2771E-05
           4   1         -14.12     -1.4211E-14 -1.5978E-14  1.3570E-04  8.3090E-04 -7.5894E-19  -1487.       2231.     -2.2771E-05
           5   1         -14.12       0.000     -1.0022E-14  1.3570E-04  8.3090E-04 -2.1684E-19  -1487.       2231.     -2.2771E-05
           6   1         -14.12     -6.3949E-14 -4.9872E-16  1.3570E-04  8.3090E-04 -5.4210E-19  -1487.       2231.     -2.2771E-05
           7   1         -14.12      4.9738E-14 -2.2327E-14  1.3570E-04  8.3090E-04 -5.4210E-19  -1487.       2231.     -2.2771E-05
           8   1         -14.12     -1.4211E-14  8.6314E-15  1.3570E-04  8.3090E-04 -1.0842E-19  -1487.       2231.     -2.2771E-05
           9   1         -11.76      9.2371E-14  2.0543E-14  1.7179E-04  8.0870E-04  9.7578E-19  -978.2       1467.     -1.4977E-05
          10   1         -11.76      6.3949E-14 -2.9174E-14  1.7179E-04  8.0870E-04 -8.6736E-19  -978.2       1467.     -1.4977E-05
          11   1         -11.76      2.8422E-14 -1.7814E-14  1.7179E-04  8.0870E-04 -9.7578E-19  -978.2       1467.     -1.4977E-05
          12   1         -11.76      2.8422E-14 -2.1435E-14  1.7179E-04  8.0870E-04 -7.5894E-19  -978.2       1467.     -1.4977E-05
          13   1         -11.76      3.5527E-14 -3.9695E-14  1.7179E-04  8.0870E-04 -1.6263E-18  -978.2       1467.     -1.4977E-05
          14   1         -11.76      7.1054E-14 -1.0521E-14  1.7179E-04  8.0870E-04 -7.5894E-19  -978.2       1467.     -1.4977E-05
          15   1         -11.76      7.1054E-14  2.7285E-15  1.7179E-04  8.0870E-04   0.000      -978.2       1467.     -1.4977E-05
          16   1         -11.76      6.3949E-14 -1.3748E-14  1.7179E-04  8.0870E-04 -1.3010E-18  -978.2       1467.     -1.4977E-05
          17   1         -9.405      1.1369E-13 -1.1039E-14  2.0787E-04  7.8650E-04 -1.3553E-19  -472.8       709.1     -7.2381E-06
          18   1         -9.405      9.2371E-14 -4.1951E-14  2.0787E-04  7.8650E-04 -1.4095E-18  -472.8       709.1     -7.2381E-06
          19   1         -9.405      7.1054E-14 -2.3396E-14  2.0787E-04  7.8650E-04 -1.1113E-18  -472.8       709.1     -7.2381E-06
          20   1         -9.405      8.5265E-14 -1.7913E-14  2.0787E-04  7.8650E-04 -7.8605E-19  -472.8       709.1     -7.2381E-06
          21   1         -9.405      9.2371E-14 -5.8401E-14  2.0787E-04  7.8650E-04 -2.3852E-18  -472.8       709.1     -7.2381E-06
          22   1         -9.405      1.2079E-13 -2.9201E-14  2.0787E-04  7.8650E-04 -1.1926E-18  -472.8       709.1     -7.2381E-06
          23   1         -9.405      9.9476E-14  9.5233E-15  2.0787E-04  7.8650E-04 -3.2526E-19  -472.8       709.1     -7.2381E-06
          24   1         -9.405      6.3949E-14 -2.6382E-17  2.0787E-04  7.8650E-04 -3.2526E-19  -472.8       709.1     -7.2381E-06
          25   1         -7.046      1.9895E-13 -7.9169E-14  2.4396E-04  7.6431E-04 -3.0680E-18   29.06      -43.59      4.4493E-07
          26   1         -7.046      9.9476E-14 -2.6819E-14  2.4396E-04  7.6431E-04 -1.1808E-18   29.06      -43.59      4.4493E-07
          27   1         -7.046      9.9476E-14 -3.4720E-14  2.4396E-04  7.6431E-04 -1.2604E-18   29.06      -43.59      4.4493E-07
          28   1         -7.046      9.2371E-14 -9.7600E-15  2.4396E-04  7.6431E-04 -8.4026E-19   29.06      -43.59      4.4493E-07
          29   1         -7.046      9.9476E-14 -4.5578E-14  2.4396E-04  7.6431E-04 -1.6263E-18   29.06      -43.59      4.4493E-07
          30   1         -7.046      9.2371E-14 -1.0888E-14  2.4396E-04  7.6431E-04 -7.3184E-19   29.06      -43.59      4.4493E-07
          31   1         -7.046      1.0658E-13 -9.0909E-15  2.4396E-04  7.6431E-04 -6.5052E-19   29.06      -43.59      4.4493E-07
          32   1         -7.046      1.2079E-13  4.4666E-15  2.4396E-04  7.6431E-04  5.4210E-20   29.06      -43.59      4.4493E-07
          33   1         -4.687     -3.5527E-14 -6.2842E-14  2.8004E-04  7.4211E-04 -2.4666E-18   527.2      -790.9      8.0724E-06
          34   1         -4.687      9.9476E-14 -3.3864E-14  2.8004E-04  7.4211E-04 -1.2197E-18   527.2      -790.9      8.0724E-06
          35   1         -4.687      7.1054E-14 -2.4858E-14  2.8004E-04  7.4211E-04 -9.2157E-19   527.2      -790.9      8.0724E-06
          36   1         -4.687      9.2371E-14 -4.6418E-14  2.8004E-04  7.4211E-04 -1.8160E-18   527.2      -790.9      8.0724E-06
          37   1         -4.687      9.2371E-14 -1.8224E-14  2.8004E-04  7.4211E-04 -1.1249E-18   527.2      -790.9      8.0724E-06
          38   1         -4.687      8.5265E-14 -1.2803E-14  2.8004E-04  7.4211E-04 -8.6736E-19   527.2      -790.9      8.0724E-06
          39   1         -4.687      1.2790E-13 -2.1969E-14  2.8004E-04  7.4211E-04 -1.0435E-18   527.2      -790.9      8.0724E-06
          40   1         -4.687      9.9476E-14 -3.1025E-15  2.8004E-04  7.4211E-04 -4.0658E-19   527.2      -790.9      8.0724E-06
          41   1         -2.328      2.1316E-14 -3.8002E-14  3.1613E-04  7.1991E-04 -3.7947E-19   1022.      -1533.      1.5644E-05
          42   1         -2.328      5.6843E-14 -4.3119E-14  3.1613E-04  7.1991E-04 -1.7889E-18   1022.      -1533.      1.5644E-05
          43   1         -2.328      8.5265E-14 -4.2371E-14  3.1613E-04  7.1991E-04 -9.7578E-19   1022.      -1533.      1.5644E-05
          44   1         -2.328      4.9738E-14 -3.1509E-14  3.1613E-04  7.1991E-04 -1.6263E-18   1022.      -1533.      1.5644E-05
          45   1         -2.328      5.6843E-14 -2.1238E-14  3.1613E-04  7.1991E-04 -1.1384E-18   1022.      -1533.      1.5644E-05
          46   1         -2.328      7.1054E-14 -2.3353E-15  3.1613E-04  7.1991E-04 -7.5894E-19   1022.      -1533.      1.5644E-05
          47   1         -2.328      5.6843E-14 -1.5853E-14  3.1613E-04  7.1991E-04 -6.2342E-19   1022.      -1533.      1.5644E-05
          48   1         -2.328      7.8160E-14 -1.6400E-15  3.1613E-04  7.1991E-04 -5.9631E-19   1022.      -1533.      1.5644E-05
          49   1         3.0758E-02  6.3949E-14 -2.3218E-14  3.5221E-04  6.9772E-04 -3.2526E-19   1513.      -2269.      2.3160E-05
          50   1         3.0758E-02  7.1054E-14  2.7812E-15  3.5221E-04  6.9772E-04  6.5052E-19   1513.      -2269.      2.3160E-05
          51   1         3.0758E-02  8.5265E-14 -5.7456E-14  3.5221E-04  6.9772E-04 -1.9516E-18   1513.      -2269.      2.3160E-05
          52   1         3.0758E-02  5.6843E-14 -1.8893E-15  3.5221E-04  6.9772E-04 -8.6736E-19   1513.      -2269.      2.3160E-05
          53   1         3.0758E-02  5.6843E-14 -2.1684E-14  3.5221E-04  6.9772E-04 -1.0300E-18   1513.      -2269.      2.3160E-05
          54   1         3.0758E-02  7.1054E-14   0.000      3.5221E-04  6.9772E-04   0.000       1513.      -2269.      2.3160E-05
          55   1         3.0758E-02  5.6843E-14 -3.5878E-14  3.5221E-04  6.9772E-04 -2.2226E-18   1513.      -2269.      2.3160E-05
          56   1         3.0758E-02  2.1316E-14 -8.2382E-15  3.5221E-04  6.9772E-04 -6.5052E-19   1513.      -2269.      2.3160E-05
          57   1          2.390      4.9738E-14  3.1744E-15  3.8830E-04  6.7552E-04 -1.0842E-19   2000.      -3000.      3.0621E-05
          58   1          2.390      2.8422E-14  9.6288E-15  3.8830E-04  6.7552E-04  9.7578E-19   2000.      -3000.      3.0621E-05
          59   1          2.390      2.8422E-14 -1.9651E-14  3.8830E-04  6.7552E-04 -1.1926E-18   2000.      -3000.      3.0621E-05
          60   1          2.390      4.2633E-14 -1.3695E-14  3.8830E-04  6.7552E-04 -6.5052E-19   2000.      -3000.      3.0621E-05
          61   1          2.390      7.1054E-15 -1.0521E-14  3.8830E-04  6.7552E-04 -7.5894E-19   2000.      -3000.      3.0621E-05
          62   1          2.390      1.4211E-14  2.1041E-14  3.8830E-04  6.7552E-04  1.5179E-18   2000.      -3000.      3.0621E-05
          63   1          2.390      2.8422E-14  1.7762E-14  3.8830E-04  6.7552E-04  3.2526E-19   2000.      -3000.      3.0621E-05
          64   1          2.390      2.1316E-14  9.1301E-15  3.8830E-04  6.7552E-04  4.3368E-19   2000.      -3000.      3.0621E-05

 MAXIMUM                 2.390      1.9895E-13  2.2825E-14  3.8830E-04  8.3090E-04  1.5179E-18   2000.       2231.      3.0621E-05
 ELEMENT                    57          25           2          57           1          62          57           2          62 

 MINIMUM                -14.12     -6.3949E-14 -7.9169E-14  1.3570E-04  6.7552E-04 -3.0680E-18  -1487.      -3000.     -2.2771E-05
 ELEMENT                     2           6          25           2          61          25           6          57           4 



   THE FOLLOWING TABLE IS PRINTED FOR ALL ELEMENTS WITH TYPE U1 AT THE INTEGRATION POINTS

    ELEMENT  PT FOOT-       SDV10       
                NOTE 

           1   1         7.3338E-06
           2   1         7.3338E-06
           3   1         7.3338E-06
           4   1         7.3338E-06
           5   1         7.3338E-06
           6   1         7.3338E-06
           7   1         7.3338E-06
           8   1         7.3338E-06
           9   1        -4.3774E-06
          10   1        -4.3774E-06
          11   1        -4.3774E-06
          12   1        -4.3774E-06
          13   1        -4.3774E-06
          14   1        -4.3774E-06
          15   1        -4.3774E-06
          16   1        -4.3774E-06
          17   1        -1.6007E-05
          18   1        -1.6007E-05
          19   1        -1.6007E-05
          20   1        -1.6007E-05
          21   1        -1.6007E-05
          22   1        -1.6007E-05
          23   1        -1.6007E-05
          24   1        -1.6007E-05
          25   1        -2.7554E-05
          26   1        -2.7554E-05
          27   1        -2.7554E-05
          28   1        -2.7554E-05
          29   1        -2.7554E-05
          30   1        -2.7554E-05
          31   1        -2.7554E-05
          32   1        -2.7554E-05
          33   1        -3.9019E-05
          34   1        -3.9019E-05
          35   1        -3.9019E-05
          36   1        -3.9019E-05
          37   1        -3.9019E-05
          38   1        -3.9019E-05
          39   1        -3.9019E-05
          40   1        -3.9019E-05
          41   1        -5.0402E-05
          42   1        -5.0402E-05
          43   1        -5.0402E-05
          44   1        -5.0402E-05
          45   1        -5.0402E-05
          46   1        -5.0402E-05
          47   1        -5.0402E-05
          48   1        -5.0402E-05
          49   1        -6.1703E-05
          50   1        -6.1703E-05
          51   1        -6.1703E-05
          52   1        -6.1703E-05
          53   1        -6.1703E-05
          54   1        -6.1703E-05
          55   1        -6.1703E-05
          56   1        -6.1703E-05
          57   1        -7.2922E-05
          58   1        -7.2922E-05
          59   1        -7.2922E-05
          60   1        -7.2922E-05
          61   1        -7.2922E-05
          62   1        -7.2922E-05
          63   1        -7.2922E-05
          64   1        -7.2922E-05

 MAXIMUM                7.3338E-06                                                                                                
 ELEMENT                     5                                                                                                 

 MINIMUM               -7.2922E-05                                                                                                
 ELEMENT                    59                                                                                                 
  
  
  
  
                                       N O D E   O U T P U T
  
  
  
  
   THE FOLLOWING TABLE IS PRINTED FOR ALL NODES
  
       NODE FOOT-  U1             U2             COOR1          COOR2          EPOT         
            NOTE
  
         1      0.0000000E+00 -3.9880073E-04  0.0000000E+00 -5.0000000E-01 -1.0000000E+03 
         2      1.4707143E-05 -4.0105609E-04  1.2500000E-01 -5.0000000E-01 -1.0000000E+03 
         3      2.9414286E-05 -4.0782216E-04  2.5000000E-01 -5.0000000E-01 -1.0000000E+03 
         4      4.4121429E-05 -4.1909895E-04  3.7500000E-01 -5.0000000E-01 -1.0000000E+03 
         5      5.8828571E-05 -4.3488645E-04  5.0000000E-01 -5.0000000E-01 -1.0000000E+03 
         6      7.3535714E-05 -4.5518466E-04  6.2500000E-01 -5.0000000E-01 -1.0000000E+03 
         7      8.8242857E-05 -4.7999359E-04  7.5000000E-01 -5.0000000E-01 -1.0000000E+03 
         8      1.0295000E-04 -5.0931323E-04  8.7500000E-01 -5.0000000E-01 -1.0000000E+03 
         9      1.1765714E-04 -5.4314359E-04  1.0000000E+00 -5.0000000E-01 -1.0000000E+03 
        10      0.0000000E+00 -2.9493868E-04  0.0000000E+00 -3.7500000E-01 -7.4364305E+02 
        11      1.9217857E-05 -2.9719404E-04  1.2500000E-01 -3.7500000E-01 -7.4364305E+02 
        12      3.8435714E-05 -3.0396011E-04  2.5000000E-01 -3.7500000E-01 -7.4364305E+02 
        13      5.7653571E-05 -3.1523690E-04  3.7500000E-01 -3.7500000E-01 -7.4364305E+02 
        14      7.6871429E-05 -3.3102440E-04  5.0000000E-01 -3.7500000E-01 -7.4364305E+02 
        15      9.6089286E-05 -3.5132261E-04  6.2500000E-01 -3.7500000E-01 -7.4364305E+02 
        16      1.1530714E-04 -3.7613154E-04  7.5000000E-01 -3.7500000E-01 -7.4364305E+02 
        17      1.3452500E-04 -4.0545118E-04  8.7500000E-01 -3.7500000E-01 -7.4364305E+02 
        18      1.5374286E-04 -4.3928154E-04  1.0000000E+00 -3.7500000E-01 -7.4364305E+02 
        19      0.0000000E+00 -1.9385121E-04  0.0000000E+00 -2.5000000E-01 -4.8910237E+02 
        20      2.3728571E-05 -1.9610657E-04  1.2500000E-01 -2.5000000E-01 -4.8910237E+02 
        21      4.7457143E-05 -2.0287264E-04  2.5000000E-01 -2.5000000E-01 -4.8910237E+02 
        22      7.1185714E-05 -2.1414943E-04  3.7500000E-01 -2.5000000E-01 -4.8910237E+02 
        23      9.4914286E-05 -2.2993693E-04  5.0000000E-01 -2.5000000E-01 -4.8910237E+02 
        24      1.1864286E-04 -2.5023514E-04  6.2500000E-01 -2.5000000E-01 -4.8910237E+02 
        25      1.4237143E-04 -2.7504407E-04  7.5000000E-01 -2.5000000E-01 -4.8910237E+02 
        26      1.6610000E-04 -3.0436371E-04  8.7500000E-01 -2.5000000E-01 -4.8910237E+02 
        27      1.8982857E-04 -3.3819407E-04  1.0000000E+00 -2.5000000E-01 -4.8910237E+02 
        28      0.0000000E+00 -9.5538317E-05  0.0000000E+00 -1.2500000E-01 -2.3637797E+02 
        29      2.8239286E-05 -9.7793674E-05  1.2500000E-01 -1.2500000E-01 -2.3637797E+02 
        30      5.6478571E-05 -1.0455975E-04  2.5000000E-01 -1.2500000E-01 -2.3637797E+02 
        31      8.4717857E-05 -1.1583653E-04  3.7500000E-01 -1.2500000E-01 -2.3637797E+02 
        32      1.1295714E-04 -1.3162403E-04  5.0000000E-01 -1.2500000E-01 -2.3637797E+02 
        33      1.4119643E-04 -1.5192225E-04  6.2500000E-01 -1.2500000E-01 -2.3637797E+02 
        34      1.6943571E-04 -1.7673117E-04  7.5000000E-01 -1.2500000E-01 -2.3637797E+02 
        35      1.9767500E-04 -2.0605082E-04  8.7500000E-01 -1.2500000E-01 -2.3637797E+02 
        36      2.2591429E-04 -2.3988117E-04  1.0000000E+00 -1.2500000E-01 -2.3637797E+02 
        37      0.0000000E+00  0.0000000E+00  0.0000000E+00  0.0000000E+00  1.4530170E+01 
        38      3.2750000E-05 -2.2553571E-06  1.2500000E-01  0.0000000E+00  1.4530170E+01 
        39      6.5500000E-05 -9.0214286E-06  2.5000000E-01  0.0000000E+00  1.4530170E+01 
        40      9.8250000E-05 -2.0298214E-05  3.7500000E-01  0.0000000E+00  1.4530170E+01 
        41      1.3100000E-04 -3.6085714E-05  5.0000000E-01  0.0000000E+00  1.4530170E+01 
        42      1.6375000E-04 -5.6383929E-05  6.2500000E-01  0.0000000E+00  1.4530170E+01 
        43      1.9650000E-04 -8.1192857E-05  7.5000000E-01  0.0000000E+00  1.4530170E+01 
        44      2.2925000E-04 -1.1051250E-04  8.7500000E-01  0.0000000E+00  1.4530170E+01 
        45      2.6200000E-04 -1.4434286E-04  1.0000000E+00  0.0000000E+00  1.4530170E+01 
        46      0.0000000E+00  9.2763739E-05  0.0000000E+00  1.2500000E-01  2.6362203E+02 
        47      3.7260714E-05  9.0508382E-05  1.2500000E-01  1.2500000E-01  2.6362203E+02 
        48      7.4521429E-05  8.3742311E-05  2.5000000E-01  1.2500000E-01  2.6362203E+02 
        49      1.1178214E-04  7.2465525E-05  3.7500000E-01  1.2500000E-01  2.6362203E+02 
        50      1.4904286E-04  5.6678025E-05  5.0000000E-01  1.2500000E-01  2.6362203E+02 
        51      1.8630357E-04  3.6379811E-05  6.2500000E-01  1.2500000E-01  2.6362203E+02 
        52      2.2356429E-04  1.1570882E-05  7.5000000E-01  1.2500000E-01  2.6362203E+02 
        53      2.6082500E-04 -1.7748761E-05  8.7500000E-01  1.2500000E-01  2.6362203E+02 
        54      2.9808571E-04 -5.1579118E-05  1.0000000E+00  1.2500000E-01  2.6362203E+02 
        55      0.0000000E+00  1.8275290E-04  0.0000000E+00  2.5000000E-01  5.1089763E+02 
        56      4.1771429E-05  1.8049754E-04  1.2500000E-01  2.5000000E-01  5.1089763E+02 
        57      8.3542857E-05  1.7373147E-04  2.5000000E-01  2.5000000E-01  5.1089763E+02 
        58      1.2531429E-04  1.6245469E-04  3.7500000E-01  2.5000000E-01  5.1089763E+02 
        59      1.6708571E-04  1.4666719E-04  5.0000000E-01  2.5000000E-01  5.1089763E+02 
        60      2.0885714E-04  1.2636897E-04  6.2500000E-01  2.5000000E-01  5.1089763E+02 
        61      2.5062857E-04  1.0156004E-04  7.5000000E-01  2.5000000E-01  5.1089763E+02 
        62      2.9240000E-04  7.2240401E-05  8.7500000E-01  2.5000000E-01  5.1089763E+02 
        63      3.3417143E-04  3.8410044E-05  1.0000000E+00  2.5000000E-01  5.1089763E+02 
        64      0.0000000E+00  2.6996748E-04  0.0000000E+00  3.7500000E-01  7.5635695E+02 
        65      4.6282143E-05  2.6771213E-04  1.2500000E-01  3.7500000E-01  7.5635695E+02 
        66      9.2564286E-05  2.6094606E-04  2.5000000E-01  3.7500000E-01  7.5635695E+02 
        67      1.3884643E-04  2.4966927E-04  3.7500000E-01  3.7500000E-01  7.5635695E+02 
        68      1.8512857E-04  2.3388177E-04  5.0000000E-01  3.7500000E-01  7.5635695E+02 
        69      2.3141071E-04  2.1358356E-04  6.2500000E-01  3.7500000E-01  7.5635695E+02 
        70      2.7769286E-04  1.8877463E-04  7.5000000E-01  3.7500000E-01  7.5635695E+02 
        71      3.2397500E-04  1.5945498E-04  8.7500000E-01  3.7500000E-01  7.5635695E+02 
        72      3.7025714E-04  1.2562463E-04  1.0000000E+00  3.7500000E-01  7.5635695E+02 
        73      0.0000000E+00  3.5440749E-04  0.0000000E+00  5.0000000E-01  1.0000000E+03 
        74      5.0792857E-05  3.5215213E-04  1.2500000E-01  5.0000000E-01  1.0000000E+03 
        75      1.0158571E-04  3.4538606E-04  2.5000000E-01  5.0000000E-01  1.0000000E+03 
        76      1.5237857E-04  3.3410928E-04  3.7500000E-01  5.0000000E-01  1.0000000E+03 
        77      2.0317143E-04  3.1832178E-04  5.0000000E-01  5.0000000E-01  1.0000000E+03 
        78      2.5396429E-04  2.9802356E-04  6.2500000E-01  5.0000000E-01  1.0000000E+03 
        79      3.0475714E-04  2.7321463E-04  7.5000000E-01  5.0000000E-01  1.0000000E+03 
        80      3.5555000E-04  2.4389499E-04  8.7500000E-01  5.0000000E-01  1.0000000E+03 
        81      4.0634286E-04  2.1006463E-04  1.0000000E+00  5.0000000E-01  1.0000000E+03 

 MAXIMUM         4.0634E-04  3.5441E-04   1.000      0.5000       1000.    
 AT NODE                81          73           9          73          73

 MINIMUM          0.000     -5.4314E-04   0.000     -0.5000      -1000.    
 AT NODE                 1           9           1           1           1


          THE ANALYSIS HAS BEEN COMPLETED



                              ANALYSIS COMPLETE
                              WITH      1 WARNING MESSAGES ON THE DAT FILE



     JOB TIME SUMMARY
       USER TIME (SEC)      =  0.10000    
       SYSTEM TIME (SEC)    =  0.10000    
       TOTAL CPU TIME (SEC) =  0.20000    
       WALLCLOCK TIME (SEC) =          1
