1

   Abaqus 3DEXPERIENCE R2018x                                  Date 19-May-2020   Time 12:15:58
   For use by Supplied by Team-SolidSQUAD under license from Dassault Systemes or its subsidiary.

 Piezoelectric strip under Bending                                               
                                                                                 
 STEP    1     INCREMENT     1     STEP TIME    0.00    


                        S T E P       1     S T A T I C   A N A L Y S I S


                                                                                          

     AUTOMATIC TIME CONTROL WITH -
          A SUGGESTED INITIAL TIME INCREMENT OF                 1.00    
          AND A TOTAL TIME PERIOD OF                            1.00    
          THE MINIMUM TIME INCREMENT ALLOWED IS                1.000E-05
          THE MAXIMUM TIME INCREMENT ALLOWED IS                 1.00    

     LINEAR EQUATION SOLVER TYPE         DIRECT SPARSE

 CONVERGENCE TOLERANCE PARAMETERS FOR FORCE    
     CRITERION FOR RESIDUAL FORCE     FOR A NONLINEAR PROBLEM          5.000E-03
     CRITERION FOR DISP.    CORRECTION IN A NONLINEAR PROBLEM          1.000E-02
     INITIAL VALUE OF TIME AVERAGE FORCE                               1.000E-02
     AVERAGE FORCE     IS TIME AVERAGE FORCE    
     ALTERNATE CRIT. FOR RESIDUAL FORCE     FOR A NONLINEAR PROBLEM    2.000E-02
     CRITERION FOR ZERO FORCE     RELATIVE TO TIME AVRG. FORCE         1.000E-05
     CRITERION FOR RESIDUAL FORCE     WHEN THERE IS ZERO FLUX          1.000E-05
     CRITERION FOR DISP.    CORRECTION WHEN THERE IS ZERO FLUX         1.000E-03
     CRITERION FOR RESIDUAL FORCE     FOR A LINEAR INCREMENT           1.000E-08
     FIELD CONVERSION RATIO                                             1.00    
     CRITERION FOR ZERO FORCE     REL. TO TIME AVRG. MAX. FORCE        1.000E-05
     CRITERION FOR ZERO DISP.    RELATIVE TO CHARACTERISTIC LENGTH     1.000E-08

 CONVERGENCE TOLERANCE PARAMETERS FOR CHARGE   
     CRITERION FOR RESIDUAL CHARGE    FOR A NONLINEAR PROBLEM          5.000E-03
     CRITERION FOR E. POT.  CORRECTION IN A NONLINEAR PROBLEM          1.000E-02
     INITIAL VALUE OF TIME AVERAGE CHARGE                              1.000E-02
     AVERAGE CHARGE    IS TIME AVERAGE CHARGE   
     ALTERNATE CRIT. FOR RESIDUAL CHARGE    FOR A NONLINEAR PROBLEM    2.000E-02
     CRITERION FOR ZERO CHARGE    RELATIVE TO TIME AVRG. CHARGE        1.000E-05
     CRITERION FOR RESIDUAL CHARGE    WHEN THERE IS ZERO FLUX          1.000E-05
     CRITERION FOR E. POT.  CORRECTION WHEN THERE IS ZERO FLUX         1.000E-03
     CRITERION FOR RESIDUAL CHARGE    FOR A LINEAR INCREMENT           1.000E-08
     FIELD CONVERSION RATIO                                             1.00    
     CRITERION FOR ZERO CHARGE    REL. TO TIME AVRG. MAX. CHARGE       1.000E-05

     VOLUMETRIC STRAIN COMPATIBILITY TOLERANCE FOR HYBRID SOLIDS       1.000E-05
     AXIAL STRAIN COMPATIBILITY TOLERANCE FOR HYBRID BEAMS             1.000E-05
     TRANS. SHEAR STRAIN COMPATIBILITY TOLERANCE FOR HYBRID BEAMS      1.000E-05
     SOFT CONTACT CONSTRAINT COMPATIBILITY TOLERANCE FOR P>P0          5.000E-03
     SOFT CONTACT CONSTRAINT COMPATIBILITY TOLERANCE FOR P=0.0         0.100    
     CONTACT FORCE ERROR TOLERANCE FOR CONVERT SDI=YES                 1.00    
     DISPLACEMENT COMPATIBILITY TOLERANCE FOR DCOUP ELEMENTS           1.000E-05
     ROTATION COMPATIBILITY TOLERANCE FOR DCOUP ELEMENTS               1.000E-05

 EQUILIBRIUM WILL BE CHECKED FOR SEVERE DISCONTINUITY ITERATIONS

 TIME INCREMENTATION CONTROL PARAMETERS:
     FIRST EQUILIBRIUM ITERATION FOR CONSECUTIVE DIVERGENCE CHECK              4
     EQUILIBRIUM ITERATION AT WHICH LOG. CONVERGENCE RATE CHECK BEGINS         8
     EQUILIBRIUM ITERATION AFTER WHICH ALTERNATE RESIDUAL IS USED              9
     MAXIMUM EQUILIBRIUM ITERATIONS ALLOWED                                   16
     EQUILIBRIUM ITERATION COUNT FOR CUT-BACK IN NEXT INCREMENT               10
     MAXIMUM EQUILIB. ITERS IN TWO INCREMENTS FOR TIME INCREMENT INCREASE      4
     MAXIMUM ITERATIONS FOR SEVERE DISCONTINUITIES                            50
     MAXIMUM ATTEMPTS ALLOWED IN AN INCREMENT                                  5
     MAXIMUM DISCON. ITERS IN TWO INCREMENTS FOR TIME INCREMENT INCREASE      50
     MAXIMUM CONTACT AUGMENTATIONS FOR *SURFACE BEHAVIOR,AUGMENTED LAGRANGE   50
     CUT-BACK FACTOR AFTER DIVERGENCE                                 0.2500    
     CUT-BACK FACTOR FOR TOO SLOW CONVERGENCE                         0.5000    
     CUT-BACK FACTOR AFTER TOO MANY EQUILIBRIUM ITERATIONS            0.7500    
     CUT-BACK FACTOR AFTER TOO MANY SEVERE DISCONTINUITY ITERATIONS   0.2500    
     CUT-BACK FACTOR AFTER PROBLEMS IN ELEMENT ASSEMBLY               0.2500    
     INCREASE FACTOR AFTER TWO INCREMENTS THAT CONVERGE QUICKLY        1.500    
     MAX. TIME INCREMENT INCREASE FACTOR ALLOWED                       1.500    
     MAX. TIME INCREMENT INCREASE FACTOR ALLOWED (DYNAMICS)            1.250    
     MAX. TIME INCREMENT INCREASE FACTOR ALLOWED (DIFFUSION)           2.000    
     MINIMUM TIME INCREMENT RATIO FOR EXTRAPOLATION TO OCCUR          0.1000    
     MAX. RATIO OF TIME INCREMENT TO STABILITY LIMIT                   1.000    
     FRACTION OF STABILITY LIMIT FOR NEW TIME INCREMENT               0.9500    
     TIME INCREMENT INCREASE FACTOR BEFORE A TIME POINT                1.000    
     GLOBAL STABILIZATION CONTROL IS NOT USED

          PRINT OF INCREMENT NUMBER, TIME, ETC., EVERY    1  INCREMENTS

     THE MAXIMUM NUMBER OF INCREMENTS IN THIS STEP IS                     100

     LINEAR EXTRAPOLATION WILL BE USED

     DETAILS REGARDING ACTUAL SOLUTION WAVEFRONT REQUESTED

     DETAILED OUTPUT OF DIAGNOSTICS TO DATABASE REQUESTED

     PRINT OF INCREMENT NUMBER, TIME, ETC., TO THE MESSAGE FILE EVERY     1  INCREMENTS

     COLLECTING MODEL CONSTRAINT INFORMATION FOR OVERCONSTRAINT CHECKS

     COLLECTING STEP CONSTRAINT INFORMATION FOR OVERCONSTRAINT CHECKS
 ***********************************
 CURRENT ELEMENT NUMBER::::           1
 NUMBER OF NODES:::           4
 DOFs:::           2
 TOTAL DOF OF ELEMENT:::           12
 ************************************
           1
 AREA1  0.000000000000000E+000
 AREA2  0.000000000000000E+000
 U1x  =  0.000000000000000E+000
 U1y  =  0.000000000000000E+000
 Phi1 =  0.000000000000000E+000
 U2x  =  0.000000000000000E+000
 U2y  =  0.000000000000000E+000
 Phi2 =  0.000000000000000E+000
 U3x  =  0.000000000000000E+000
 U3y  =  0.000000000000000E+000
 Phi3 =  0.000000000000000E+000
 U4x  =  0.000000000000000E+000
 U4y  =  0.000000000000000E+000
 Phi4 =  0.000000000000000E+000
 ***********************************
 CURRENT ELEMENT NUMBER::::           2
 NUMBER OF NODES:::           4
 DOFs:::           2
 TOTAL DOF OF ELEMENT:::           12
 ************************************
           2
 AREA1  0.000000000000000E+000
 AREA2  0.000000000000000E+000
 U1x  =  0.000000000000000E+000
 U1y  =  0.000000000000000E+000
 Phi1 =  0.000000000000000E+000
 U2x  =  0.000000000000000E+000
 U2y  =  0.000000000000000E+000
 Phi2 =  0.000000000000000E+000
 U3x  =  0.000000000000000E+000
 U3y  =  0.000000000000000E+000
 Phi3 =  0.000000000000000E+000
 U4x  =  0.000000000000000E+000
 U4y  =  0.000000000000000E+000
 Phi4 =  0.000000000000000E+000
 ***********************************
 CURRENT ELEMENT NUMBER::::           3
 NUMBER OF NODES:::           4
 DOFs:::           2
 TOTAL DOF OF ELEMENT:::           12
 ************************************
           3
 AREA1  0.000000000000000E+000
 AREA2  0.000000000000000E+000
 U1x  =  0.000000000000000E+000
 U1y  =  0.000000000000000E+000
 Phi1 =  0.000000000000000E+000
 U2x  =  0.000000000000000E+000
 U2y  =  0.000000000000000E+000
 Phi2 =  0.000000000000000E+000
 U3x  =  0.000000000000000E+000
 U3y  =  0.000000000000000E+000
 Phi3 =  0.000000000000000E+000
 U4x  =  0.000000000000000E+000
 U4y  =  0.000000000000000E+000
 Phi4 =  0.000000000000000E+000
 ***********************************
 CURRENT ELEMENT NUMBER::::           4
 NUMBER OF NODES:::           4
 DOFs:::           2
 TOTAL DOF OF ELEMENT:::           12
 ************************************
           4
 AREA1  0.000000000000000E+000
 AREA2  0.000000000000000E+000
 U1x  =  0.000000000000000E+000
 U1y  =  0.000000000000000E+000
 Phi1 =  0.000000000000000E+000
 U2x  =  0.000000000000000E+000
 U2y  =  0.000000000000000E+000
 Phi2 =  0.000000000000000E+000
 U3x  =  0.000000000000000E+000
 U3y  =  0.000000000000000E+000
 Phi3 =  0.000000000000000E+000
 U4x  =  0.000000000000000E+000
 U4y  =  0.000000000000000E+000
 Phi4 =  0.000000000000000E+000
 ***********************************
 CURRENT ELEMENT NUMBER::::           5
 NUMBER OF NODES:::           4
 DOFs:::           2
 TOTAL DOF OF ELEMENT:::           12
 ************************************
           5
 AREA1  0.000000000000000E+000
 AREA2  0.000000000000000E+000
 U1x  =  0.000000000000000E+000
 U1y  =  0.000000000000000E+000
 Phi1 =  0.000000000000000E+000
 U2x  =  0.000000000000000E+000
 U2y  =  0.000000000000000E+000
 Phi2 =  0.000000000000000E+000
 U3x  =  0.000000000000000E+000
 U3y  =  0.000000000000000E+000
 Phi3 =  0.000000000000000E+000
 U4x  =  0.000000000000000E+000
 U4y  =  0.000000000000000E+000
 Phi4 =  0.000000000000000E+000
 ***********************************
 CURRENT ELEMENT NUMBER::::           6
 NUMBER OF NODES:::           4
 DOFs:::           2
 TOTAL DOF OF ELEMENT:::           12
 ************************************
           6
 AREA1  0.000000000000000E+000
 AREA2  0.000000000000000E+000
 U1x  =  0.000000000000000E+000
 U1y  =  0.000000000000000E+000
 Phi1 =  0.000000000000000E+000
 U2x  =  0.000000000000000E+000
 U2y  =  0.000000000000000E+000
 Phi2 =  0.000000000000000E+000
 U3x  =  0.000000000000000E+000
 U3y  =  0.000000000000000E+000
 Phi3 =  0.000000000000000E+000
 U4x  =  0.000000000000000E+000
 U4y  =  0.000000000000000E+000
 Phi4 =  0.000000000000000E+000
 ***********************************
 CURRENT ELEMENT NUMBER::::           7
 NUMBER OF NODES:::           4
 DOFs:::           2
 TOTAL DOF OF ELEMENT:::           12
 ************************************
           7
 AREA1  0.000000000000000E+000
 AREA2  0.000000000000000E+000
 U1x  =  0.000000000000000E+000
 U1y  =  0.000000000000000E+000
 Phi1 =  0.000000000000000E+000
 U2x  =  0.000000000000000E+000
 U2y  =  0.000000000000000E+000
 Phi2 =  0.000000000000000E+000
 U3x  =  0.000000000000000E+000
 U3y  =  0.000000000000000E+000
 Phi3 =  0.000000000000000E+000
 U4x  =  0.000000000000000E+000
 U4y  =  0.000000000000000E+000
 Phi4 =  0.000000000000000E+000
 ***********************************
 CURRENT ELEMENT NUMBER::::           8
 NUMBER OF NODES:::           4
 DOFs:::           2
 TOTAL DOF OF ELEMENT:::           12
 ************************************
           8
 AREA1  0.000000000000000E+000
 AREA2  0.000000000000000E+000
 U1x  =  0.000000000000000E+000
 U1y  =  0.000000000000000E+000
 Phi1 =  0.000000000000000E+000
 U2x  =  0.000000000000000E+000
 U2y  =  0.000000000000000E+000
 Phi2 =  0.000000000000000E+000
 U3x  =  0.000000000000000E+000
 U3y  =  0.000000000000000E+000
 Phi3 =  0.000000000000000E+000
 U4x  =  0.000000000000000E+000
 U4y  =  0.000000000000000E+000
 Phi4 =  0.000000000000000E+000
 ***********************************
 CURRENT ELEMENT NUMBER::::           9
 NUMBER OF NODES:::           4
 DOFs:::           2
 TOTAL DOF OF ELEMENT:::           12
 ************************************
           9
 AREA1  0.000000000000000E+000
 AREA2  0.000000000000000E+000
 U1x  =  0.000000000000000E+000
 U1y  =  0.000000000000000E+000
 Phi1 =  0.000000000000000E+000
 U2x  =  0.000000000000000E+000
 U2y  =  0.000000000000000E+000
 Phi2 =  0.000000000000000E+000
 U3x  =  0.000000000000000E+000
 U3y  =  0.000000000000000E+000
 Phi3 =  0.000000000000000E+000
 U4x  =  0.000000000000000E+000
 U4y  =  0.000000000000000E+000
 Phi4 =  0.000000000000000E+000
 ***********************************
 CURRENT ELEMENT NUMBER::::          10
 NUMBER OF NODES:::           4
 DOFs:::           2
 TOTAL DOF OF ELEMENT:::           12
 ************************************
          10
 AREA1  0.000000000000000E+000
 AREA2  0.000000000000000E+000
 U1x  =  0.000000000000000E+000
 U1y  =  0.000000000000000E+000
 Phi1 =  0.000000000000000E+000
 U2x  =  0.000000000000000E+000
 U2y  =  0.000000000000000E+000
 Phi2 =  0.000000000000000E+000
 U3x  =  0.000000000000000E+000
 U3y  =  0.000000000000000E+000
 Phi3 =  0.000000000000000E+000
 U4x  =  0.000000000000000E+000
 U4y  =  0.000000000000000E+000
 Phi4 =  0.000000000000000E+000
 ***********************************
 CURRENT ELEMENT NUMBER::::          11
 NUMBER OF NODES:::           4
 DOFs:::           2
 TOTAL DOF OF ELEMENT:::           12
 ************************************
          11
 AREA1  0.000000000000000E+000
 AREA2  0.000000000000000E+000
 U1x  =  0.000000000000000E+000
 U1y  =  0.000000000000000E+000
 Phi1 =  0.000000000000000E+000
 U2x  =  0.000000000000000E+000
 U2y  =  0.000000000000000E+000
 Phi2 =  0.000000000000000E+000
 U3x  =  0.000000000000000E+000
 U3y  =  0.000000000000000E+000
 Phi3 =  0.000000000000000E+000
 U4x  =  0.000000000000000E+000
 U4y  =  0.000000000000000E+000
 Phi4 =  0.000000000000000E+000
 ***********************************
 CURRENT ELEMENT NUMBER::::          12
 NUMBER OF NODES:::           4
 DOFs:::           2
 TOTAL DOF OF ELEMENT:::           12
 ************************************
          12
 AREA1  0.000000000000000E+000
 AREA2  0.000000000000000E+000
 U1x  =  0.000000000000000E+000
 U1y  =  0.000000000000000E+000
 Phi1 =  0.000000000000000E+000
 U2x  =  0.000000000000000E+000
 U2y  =  0.000000000000000E+000
 Phi2 =  0.000000000000000E+000
 U3x  =  0.000000000000000E+000
 U3y  =  0.000000000000000E+000
 Phi3 =  0.000000000000000E+000
 U4x  =  0.000000000000000E+000
 U4y  =  0.000000000000000E+000
 Phi4 =  0.000000000000000E+000
 ***********************************
 CURRENT ELEMENT NUMBER::::          13
 NUMBER OF NODES:::           4
 DOFs:::           2
 TOTAL DOF OF ELEMENT:::           12
 ************************************
          13
 AREA1  0.000000000000000E+000
 AREA2  0.000000000000000E+000
 U1x  =  0.000000000000000E+000
 U1y  =  0.000000000000000E+000
 Phi1 =  0.000000000000000E+000
 U2x  =  0.000000000000000E+000
 U2y  =  0.000000000000000E+000
 Phi2 =  0.000000000000000E+000
 U3x  =  0.000000000000000E+000
 U3y  =  0.000000000000000E+000
 Phi3 =  0.000000000000000E+000
 U4x  =  0.000000000000000E+000
 U4y  =  0.000000000000000E+000
 Phi4 =  0.000000000000000E+000
 ***********************************
 CURRENT ELEMENT NUMBER::::          14
 NUMBER OF NODES:::           4
 DOFs:::           2
 TOTAL DOF OF ELEMENT:::           12
 ************************************
          14
 AREA1  0.000000000000000E+000
 AREA2  0.000000000000000E+000
 U1x  =  0.000000000000000E+000
 U1y  =  0.000000000000000E+000
 Phi1 =  0.000000000000000E+000
 U2x  =  0.000000000000000E+000
 U2y  =  0.000000000000000E+000
 Phi2 =  0.000000000000000E+000
 U3x  =  0.000000000000000E+000
 U3y  =  0.000000000000000E+000
 Phi3 =  0.000000000000000E+000
 U4x  =  0.000000000000000E+000
 U4y  =  0.000000000000000E+000
 Phi4 =  0.000000000000000E+000
 ***********************************
 CURRENT ELEMENT NUMBER::::          15
 NUMBER OF NODES:::           4
 DOFs:::           2
 TOTAL DOF OF ELEMENT:::           12
 ************************************
          15
 AREA1  0.000000000000000E+000
 AREA2  0.000000000000000E+000
 U1x  =  0.000000000000000E+000
 U1y  =  0.000000000000000E+000
 Phi1 =  0.000000000000000E+000
 U2x  =  0.000000000000000E+000
 U2y  =  0.000000000000000E+000
 Phi2 =  0.000000000000000E+000
 U3x  =  0.000000000000000E+000
 U3y  =  0.000000000000000E+000
 Phi3 =  0.000000000000000E+000
 U4x  =  0.000000000000000E+000
 U4y  =  0.000000000000000E+000
 Phi4 =  0.000000000000000E+000
 ***********************************
 CURRENT ELEMENT NUMBER::::          16
 NUMBER OF NODES:::           4
 DOFs:::           2
 TOTAL DOF OF ELEMENT:::           12
 ************************************
          16
 AREA1  0.000000000000000E+000
 AREA2  0.000000000000000E+000
 U1x  =  0.000000000000000E+000
 U1y  =  0.000000000000000E+000
 Phi1 =  0.000000000000000E+000
 U2x  =  0.000000000000000E+000
 U2y  =  0.000000000000000E+000
 Phi2 =  0.000000000000000E+000
 U3x  =  0.000000000000000E+000
 U3y  =  0.000000000000000E+000
 Phi3 =  0.000000000000000E+000
 U4x  =  0.000000000000000E+000
 U4y  =  0.000000000000000E+000
 Phi4 =  0.000000000000000E+000
 ***********************************
 CURRENT ELEMENT NUMBER::::          17
 NUMBER OF NODES:::           4
 DOFs:::           2
 TOTAL DOF OF ELEMENT:::           12
 ************************************
          17
 AREA1  0.000000000000000E+000
 AREA2  0.000000000000000E+000
 U1x  =  0.000000000000000E+000
 U1y  =  0.000000000000000E+000
 Phi1 =  0.000000000000000E+000
 U2x  =  0.000000000000000E+000
 U2y  =  0.000000000000000E+000
 Phi2 =  0.000000000000000E+000
 U3x  =  0.000000000000000E+000
 U3y  =  0.000000000000000E+000
 Phi3 =  0.000000000000000E+000
 U4x  =  0.000000000000000E+000
 U4y  =  0.000000000000000E+000
 Phi4 =  0.000000000000000E+000
 ***********************************
 CURRENT ELEMENT NUMBER::::          18
 NUMBER OF NODES:::           4
 DOFs:::           2
 TOTAL DOF OF ELEMENT:::           12
 ************************************
          18
 AREA1  0.000000000000000E+000
 AREA2  0.000000000000000E+000
 U1x  =  0.000000000000000E+000
 U1y  =  0.000000000000000E+000
 Phi1 =  0.000000000000000E+000
 U2x  =  0.000000000000000E+000
 U2y  =  0.000000000000000E+000
 Phi2 =  0.000000000000000E+000
 U3x  =  0.000000000000000E+000
 U3y  =  0.000000000000000E+000
 Phi3 =  0.000000000000000E+000
 U4x  =  0.000000000000000E+000
 U4y  =  0.000000000000000E+000
 Phi4 =  0.000000000000000E+000
 ***********************************
 CURRENT ELEMENT NUMBER::::          19
 NUMBER OF NODES:::           4
 DOFs:::           2
 TOTAL DOF OF ELEMENT:::           12
 ************************************
          19
 AREA1  0.000000000000000E+000
 AREA2  0.000000000000000E+000
 U1x  =  0.000000000000000E+000
 U1y  =  0.000000000000000E+000
 Phi1 =  0.000000000000000E+000
 U2x  =  0.000000000000000E+000
 U2y  =  0.000000000000000E+000
 Phi2 =  0.000000000000000E+000
 U3x  =  0.000000000000000E+000
 U3y  =  0.000000000000000E+000
 Phi3 =  0.000000000000000E+000
 U4x  =  0.000000000000000E+000
 U4y  =  0.000000000000000E+000
 Phi4 =  0.000000000000000E+000
 ***********************************
 CURRENT ELEMENT NUMBER::::          20
 NUMBER OF NODES:::           4
 DOFs:::           2
 TOTAL DOF OF ELEMENT:::           12
 ************************************
          20
 AREA1  0.000000000000000E+000
 AREA2  0.000000000000000E+000
 U1x  =  0.000000000000000E+000
 U1y  =  0.000000000000000E+000
 Phi1 =  0.000000000000000E+000
 U2x  =  0.000000000000000E+000
 U2y  =  0.000000000000000E+000
 Phi2 =  0.000000000000000E+000
 U3x  =  0.000000000000000E+000
 U3y  =  0.000000000000000E+000
 Phi3 =  0.000000000000000E+000
 U4x  =  0.000000000000000E+000
 U4y  =  0.000000000000000E+000
 Phi4 =  0.000000000000000E+000
 ***********************************
 CURRENT ELEMENT NUMBER::::          21
 NUMBER OF NODES:::           4
 DOFs:::           2
 TOTAL DOF OF ELEMENT:::           12
 ************************************
          21
 AREA1  0.000000000000000E+000
 AREA2  0.000000000000000E+000
 U1x  =  0.000000000000000E+000
 U1y  =  0.000000000000000E+000
 Phi1 =  0.000000000000000E+000
 U2x  =  0.000000000000000E+000
 U2y  =  0.000000000000000E+000
 Phi2 =  0.000000000000000E+000
 U3x  =  0.000000000000000E+000
 U3y  =  0.000000000000000E+000
 Phi3 =  0.000000000000000E+000
 U4x  =  0.000000000000000E+000
 U4y  =  0.000000000000000E+000
 Phi4 =  0.000000000000000E+000
 ***********************************
 CURRENT ELEMENT NUMBER::::          22
 NUMBER OF NODES:::           4
 DOFs:::           2
 TOTAL DOF OF ELEMENT:::           12
 ************************************
          22
 AREA1  0.000000000000000E+000
 AREA2  0.000000000000000E+000
 U1x  =  0.000000000000000E+000
 U1y  =  0.000000000000000E+000
 Phi1 =  0.000000000000000E+000
 U2x  =  0.000000000000000E+000
 U2y  =  0.000000000000000E+000
 Phi2 =  0.000000000000000E+000
 U3x  =  0.000000000000000E+000
 U3y  =  0.000000000000000E+000
 Phi3 =  0.000000000000000E+000
 U4x  =  0.000000000000000E+000
 U4y  =  0.000000000000000E+000
 Phi4 =  0.000000000000000E+000
 ***********************************
 CURRENT ELEMENT NUMBER::::          23
 NUMBER OF NODES:::           4
 DOFs:::           2
 TOTAL DOF OF ELEMENT:::           12
 ************************************
          23
 AREA1  0.000000000000000E+000
 AREA2  0.000000000000000E+000
 U1x  =  0.000000000000000E+000
 U1y  =  0.000000000000000E+000
 Phi1 =  0.000000000000000E+000
 U2x  =  0.000000000000000E+000
 U2y  =  0.000000000000000E+000
 Phi2 =  0.000000000000000E+000
 U3x  =  0.000000000000000E+000
 U3y  =  0.000000000000000E+000
 Phi3 =  0.000000000000000E+000
 U4x  =  0.000000000000000E+000
 U4y  =  0.000000000000000E+000
 Phi4 =  0.000000000000000E+000
 ***********************************
 CURRENT ELEMENT NUMBER::::          24
 NUMBER OF NODES:::           4
 DOFs:::           2
 TOTAL DOF OF ELEMENT:::           12
 ************************************
          24
 AREA1  0.000000000000000E+000
 AREA2  0.000000000000000E+000
 U1x  =  0.000000000000000E+000
 U1y  =  0.000000000000000E+000
 Phi1 =  0.000000000000000E+000
 U2x  =  0.000000000000000E+000
 U2y  =  0.000000000000000E+000
 Phi2 =  0.000000000000000E+000
 U3x  =  0.000000000000000E+000
 U3y  =  0.000000000000000E+000
 Phi3 =  0.000000000000000E+000
 U4x  =  0.000000000000000E+000
 U4y  =  0.000000000000000E+000
 Phi4 =  0.000000000000000E+000
 ***********************************
 CURRENT ELEMENT NUMBER::::          25
 NUMBER OF NODES:::           4
 DOFs:::           2
 TOTAL DOF OF ELEMENT:::           12
 ************************************
          25
 AREA1  0.000000000000000E+000
 AREA2  0.000000000000000E+000
 U1x  =  0.000000000000000E+000
 U1y  =  0.000000000000000E+000
 Phi1 =  0.000000000000000E+000
 U2x  =  0.000000000000000E+000
 U2y  =  0.000000000000000E+000
 Phi2 =  0.000000000000000E+000
 U3x  =  0.000000000000000E+000
 U3y  =  0.000000000000000E+000
 Phi3 =  0.000000000000000E+000
 U4x  =  0.000000000000000E+000
 U4y  =  0.000000000000000E+000
 Phi4 =  0.000000000000000E+000
 ***********************************
 CURRENT ELEMENT NUMBER::::          26
 NUMBER OF NODES:::           4
 DOFs:::           2
 TOTAL DOF OF ELEMENT:::           12
 ************************************
          26
 AREA1  0.000000000000000E+000
 AREA2  0.000000000000000E+000
 U1x  =  0.000000000000000E+000
 U1y  =  0.000000000000000E+000
 Phi1 =  0.000000000000000E+000
 U2x  =  0.000000000000000E+000
 U2y  =  0.000000000000000E+000
 Phi2 =  0.000000000000000E+000
 U3x  =  0.000000000000000E+000
 U3y  =  0.000000000000000E+000
 Phi3 =  0.000000000000000E+000
 U4x  =  0.000000000000000E+000
 U4y  =  0.000000000000000E+000
 Phi4 =  0.000000000000000E+000
 ***********************************
 CURRENT ELEMENT NUMBER::::          27
 NUMBER OF NODES:::           4
 DOFs:::           2
 TOTAL DOF OF ELEMENT:::           12
 ************************************
          27
 AREA1  0.000000000000000E+000
 AREA2  0.000000000000000E+000
 U1x  =  0.000000000000000E+000
 U1y  =  0.000000000000000E+000
 Phi1 =  0.000000000000000E+000
 U2x  =  0.000000000000000E+000
 U2y  =  0.000000000000000E+000
 Phi2 =  0.000000000000000E+000
 U3x  =  0.000000000000000E+000
 U3y  =  0.000000000000000E+000
 Phi3 =  0.000000000000000E+000
 U4x  =  0.000000000000000E+000
 U4y  =  0.000000000000000E+000
 Phi4 =  0.000000000000000E+000
 ***********************************
 CURRENT ELEMENT NUMBER::::          28
 NUMBER OF NODES:::           4
 DOFs:::           2
 TOTAL DOF OF ELEMENT:::           12
 ************************************
          28
 AREA1  0.000000000000000E+000
 AREA2  0.000000000000000E+000
 U1x  =  0.000000000000000E+000
 U1y  =  0.000000000000000E+000
 Phi1 =  0.000000000000000E+000
 U2x  =  0.000000000000000E+000
 U2y  =  0.000000000000000E+000
 Phi2 =  0.000000000000000E+000
 U3x  =  0.000000000000000E+000
 U3y  =  0.000000000000000E+000
 Phi3 =  0.000000000000000E+000
 U4x  =  0.000000000000000E+000
 U4y  =  0.000000000000000E+000
 Phi4 =  0.000000000000000E+000
 ***********************************
 CURRENT ELEMENT NUMBER::::          29
 NUMBER OF NODES:::           4
 DOFs:::           2
 TOTAL DOF OF ELEMENT:::           12
 ************************************
          29
 AREA1  0.000000000000000E+000
 AREA2  0.000000000000000E+000
 U1x  =  0.000000000000000E+000
 U1y  =  0.000000000000000E+000
 Phi1 =  0.000000000000000E+000
 U2x  =  0.000000000000000E+000
 U2y  =  0.000000000000000E+000
 Phi2 =  0.000000000000000E+000
 U3x  =  0.000000000000000E+000
 U3y  =  0.000000000000000E+000
 Phi3 =  0.000000000000000E+000
 U4x  =  0.000000000000000E+000
 U4y  =  0.000000000000000E+000
 Phi4 =  0.000000000000000E+000
 ***********************************
 CURRENT ELEMENT NUMBER::::          30
 NUMBER OF NODES:::           4
 DOFs:::           2
 TOTAL DOF OF ELEMENT:::           12
 ************************************
          30
 AREA1  0.000000000000000E+000
 AREA2  0.000000000000000E+000
 U1x  =  0.000000000000000E+000
 U1y  =  0.000000000000000E+000
 Phi1 =  0.000000000000000E+000
 U2x  =  0.000000000000000E+000
 U2y  =  0.000000000000000E+000
 Phi2 =  0.000000000000000E+000
 U3x  =  0.000000000000000E+000
 U3y  =  0.000000000000000E+000
 Phi3 =  0.000000000000000E+000
 U4x  =  0.000000000000000E+000
 U4y  =  0.000000000000000E+000
 Phi4 =  0.000000000000000E+000
 ***********************************
 CURRENT ELEMENT NUMBER::::          31
 NUMBER OF NODES:::           4
 DOFs:::           2
 TOTAL DOF OF ELEMENT:::           12
 ************************************
          31
 AREA1  0.000000000000000E+000
 AREA2  0.000000000000000E+000
 U1x  =  0.000000000000000E+000
 U1y  =  0.000000000000000E+000
 Phi1 =  0.000000000000000E+000
 U2x  =  0.000000000000000E+000
 U2y  =  0.000000000000000E+000
 Phi2 =  0.000000000000000E+000
 U3x  =  0.000000000000000E+000
 U3y  =  0.000000000000000E+000
 Phi3 =  0.000000000000000E+000
 U4x  =  0.000000000000000E+000
 U4y  =  0.000000000000000E+000
 Phi4 =  0.000000000000000E+000
 ***********************************
 CURRENT ELEMENT NUMBER::::          32
 NUMBER OF NODES:::           4
 DOFs:::           2
 TOTAL DOF OF ELEMENT:::           12
 ************************************
          32
 AREA1  0.000000000000000E+000
 AREA2  0.000000000000000E+000
 U1x  =  0.000000000000000E+000
 U1y  =  0.000000000000000E+000
 Phi1 =  0.000000000000000E+000
 U2x  =  0.000000000000000E+000
 U2y  =  0.000000000000000E+000
 Phi2 =  0.000000000000000E+000
 U3x  =  0.000000000000000E+000
 U3y  =  0.000000000000000E+000
 Phi3 =  0.000000000000000E+000
 U4x  =  0.000000000000000E+000
 U4y  =  0.000000000000000E+000
 Phi4 =  0.000000000000000E+000
 ***********************************
 CURRENT ELEMENT NUMBER::::          33
 NUMBER OF NODES:::           4
 DOFs:::           2
 TOTAL DOF OF ELEMENT:::           12
 ************************************
          33
 AREA1  0.000000000000000E+000
 AREA2  0.000000000000000E+000
 U1x  =  0.000000000000000E+000
 U1y  =  0.000000000000000E+000
 Phi1 =  0.000000000000000E+000
 U2x  =  0.000000000000000E+000
 U2y  =  0.000000000000000E+000
 Phi2 =  0.000000000000000E+000
 U3x  =  0.000000000000000E+000
 U3y  =  0.000000000000000E+000
 Phi3 =  0.000000000000000E+000
 U4x  =  0.000000000000000E+000
 U4y  =  0.000000000000000E+000
 Phi4 =  0.000000000000000E+000
 ***********************************
 CURRENT ELEMENT NUMBER::::          34
 NUMBER OF NODES:::           4
 DOFs:::           2
 TOTAL DOF OF ELEMENT:::           12
 ************************************
          34
 AREA1  0.000000000000000E+000
 AREA2  0.000000000000000E+000
 U1x  =  0.000000000000000E+000
 U1y  =  0.000000000000000E+000
 Phi1 =  0.000000000000000E+000
 U2x  =  0.000000000000000E+000
 U2y  =  0.000000000000000E+000
 Phi2 =  0.000000000000000E+000
 U3x  =  0.000000000000000E+000
 U3y  =  0.000000000000000E+000
 Phi3 =  0.000000000000000E+000
 U4x  =  0.000000000000000E+000
 U4y  =  0.000000000000000E+000
 Phi4 =  0.000000000000000E+000
 ***********************************
 CURRENT ELEMENT NUMBER::::          35
 NUMBER OF NODES:::           4
 DOFs:::           2
 TOTAL DOF OF ELEMENT:::           12
 ************************************
          35
 AREA1  0.000000000000000E+000
 AREA2  0.000000000000000E+000
 U1x  =  0.000000000000000E+000
 U1y  =  0.000000000000000E+000
 Phi1 =  0.000000000000000E+000
 U2x  =  0.000000000000000E+000
 U2y  =  0.000000000000000E+000
 Phi2 =  0.000000000000000E+000
 U3x  =  0.000000000000000E+000
 U3y  =  0.000000000000000E+000
 Phi3 =  0.000000000000000E+000
 U4x  =  0.000000000000000E+000
 U4y  =  0.000000000000000E+000
 Phi4 =  0.000000000000000E+000
 ***********************************
 CURRENT ELEMENT NUMBER::::          36
 NUMBER OF NODES:::           4
 DOFs:::           2
 TOTAL DOF OF ELEMENT:::           12
 ************************************
          36
 AREA1  0.000000000000000E+000
 AREA2  0.000000000000000E+000
 U1x  =  0.000000000000000E+000
 U1y  =  0.000000000000000E+000
 Phi1 =  0.000000000000000E+000
 U2x  =  0.000000000000000E+000
 U2y  =  0.000000000000000E+000
 Phi2 =  0.000000000000000E+000
 U3x  =  0.000000000000000E+000
 U3y  =  0.000000000000000E+000
 Phi3 =  0.000000000000000E+000
 U4x  =  0.000000000000000E+000
 U4y  =  0.000000000000000E+000
 Phi4 =  0.000000000000000E+000
 ***********************************
 CURRENT ELEMENT NUMBER::::          37
 NUMBER OF NODES:::           4
 DOFs:::           2
 TOTAL DOF OF ELEMENT:::           12
 ************************************
          37
 AREA1  0.000000000000000E+000
 AREA2  0.000000000000000E+000
 U1x  =  0.000000000000000E+000
 U1y  =  0.000000000000000E+000
 Phi1 =  0.000000000000000E+000
 U2x  =  0.000000000000000E+000
 U2y  =  0.000000000000000E+000
 Phi2 =  0.000000000000000E+000
 U3x  =  0.000000000000000E+000
 U3y  =  0.000000000000000E+000
 Phi3 =  0.000000000000000E+000
 U4x  =  0.000000000000000E+000
 U4y  =  0.000000000000000E+000
 Phi4 =  0.000000000000000E+000
 ***********************************
 CURRENT ELEMENT NUMBER::::          38
 NUMBER OF NODES:::           4
 DOFs:::           2
 TOTAL DOF OF ELEMENT:::           12
 ************************************
          38
 AREA1  0.000000000000000E+000
 AREA2  0.000000000000000E+000
 U1x  =  0.000000000000000E+000
 U1y  =  0.000000000000000E+000
 Phi1 =  0.000000000000000E+000
 U2x  =  0.000000000000000E+000
 U2y  =  0.000000000000000E+000
 Phi2 =  0.000000000000000E+000
 U3x  =  0.000000000000000E+000
 U3y  =  0.000000000000000E+000
 Phi3 =  0.000000000000000E+000
 U4x  =  0.000000000000000E+000
 U4y  =  0.000000000000000E+000
 Phi4 =  0.000000000000000E+000
 ***********************************
 CURRENT ELEMENT NUMBER::::          39
 NUMBER OF NODES:::           4
 DOFs:::           2
 TOTAL DOF OF ELEMENT:::           12
 ************************************
          39
 AREA1  0.000000000000000E+000
 AREA2  0.000000000000000E+000
 U1x  =  0.000000000000000E+000
 U1y  =  0.000000000000000E+000
 Phi1 =  0.000000000000000E+000
 U2x  =  0.000000000000000E+000
 U2y  =  0.000000000000000E+000
 Phi2 =  0.000000000000000E+000
 U3x  =  0.000000000000000E+000
 U3y  =  0.000000000000000E+000
 Phi3 =  0.000000000000000E+000
 U4x  =  0.000000000000000E+000
 U4y  =  0.000000000000000E+000
 Phi4 =  0.000000000000000E+000
 ***********************************
 CURRENT ELEMENT NUMBER::::          40
 NUMBER OF NODES:::           4
 DOFs:::           2
 TOTAL DOF OF ELEMENT:::           12
 ************************************
          40
 AREA1  0.000000000000000E+000
 AREA2  0.000000000000000E+000
 U1x  =  0.000000000000000E+000
 U1y  =  0.000000000000000E+000
 Phi1 =  0.000000000000000E+000
 U2x  =  0.000000000000000E+000
 U2y  =  0.000000000000000E+000
 Phi2 =  0.000000000000000E+000
 U3x  =  0.000000000000000E+000
 U3y  =  0.000000000000000E+000
 Phi3 =  0.000000000000000E+000
 U4x  =  0.000000000000000E+000
 U4y  =  0.000000000000000E+000
 Phi4 =  0.000000000000000E+000
 ***********************************
 CURRENT ELEMENT NUMBER::::          41
 NUMBER OF NODES:::           4
 DOFs:::           2
 TOTAL DOF OF ELEMENT:::           12
 ************************************
          41
 AREA1  0.000000000000000E+000
 AREA2  0.000000000000000E+000
 U1x  =  0.000000000000000E+000
 U1y  =  0.000000000000000E+000
 Phi1 =  0.000000000000000E+000
 U2x  =  0.000000000000000E+000
 U2y  =  0.000000000000000E+000
 Phi2 =  0.000000000000000E+000
 U3x  =  0.000000000000000E+000
 U3y  =  0.000000000000000E+000
 Phi3 =  0.000000000000000E+000
 U4x  =  0.000000000000000E+000
 U4y  =  0.000000000000000E+000
 Phi4 =  0.000000000000000E+000
 ***********************************
 CURRENT ELEMENT NUMBER::::          42
 NUMBER OF NODES:::           4
 DOFs:::           2
 TOTAL DOF OF ELEMENT:::           12
 ************************************
          42
 AREA1  0.000000000000000E+000
 AREA2  0.000000000000000E+000
 U1x  =  0.000000000000000E+000
 U1y  =  0.000000000000000E+000
 Phi1 =  0.000000000000000E+000
 U2x  =  0.000000000000000E+000
 U2y  =  0.000000000000000E+000
 Phi2 =  0.000000000000000E+000
 U3x  =  0.000000000000000E+000
 U3y  =  0.000000000000000E+000
 Phi3 =  0.000000000000000E+000
 U4x  =  0.000000000000000E+000
 U4y  =  0.000000000000000E+000
 Phi4 =  0.000000000000000E+000
 ***********************************
 CURRENT ELEMENT NUMBER::::          43
 NUMBER OF NODES:::           4
 DOFs:::           2
 TOTAL DOF OF ELEMENT:::           12
 ************************************
          43
 AREA1  0.000000000000000E+000
 AREA2  0.000000000000000E+000
 U1x  =  0.000000000000000E+000
 U1y  =  0.000000000000000E+000
 Phi1 =  0.000000000000000E+000
 U2x  =  0.000000000000000E+000
 U2y  =  0.000000000000000E+000
 Phi2 =  0.000000000000000E+000
 U3x  =  0.000000000000000E+000
 U3y  =  0.000000000000000E+000
 Phi3 =  0.000000000000000E+000
 U4x  =  0.000000000000000E+000
 U4y  =  0.000000000000000E+000
 Phi4 =  0.000000000000000E+000
 ***********************************
 CURRENT ELEMENT NUMBER::::          44
 NUMBER OF NODES:::           4
 DOFs:::           2
 TOTAL DOF OF ELEMENT:::           12
 ************************************
          44
 AREA1  0.000000000000000E+000
 AREA2  0.000000000000000E+000
 U1x  =  0.000000000000000E+000
 U1y  =  0.000000000000000E+000
 Phi1 =  0.000000000000000E+000
 U2x  =  0.000000000000000E+000
 U2y  =  0.000000000000000E+000
 Phi2 =  0.000000000000000E+000
 U3x  =  0.000000000000000E+000
 U3y  =  0.000000000000000E+000
 Phi3 =  0.000000000000000E+000
 U4x  =  0.000000000000000E+000
 U4y  =  0.000000000000000E+000
 Phi4 =  0.000000000000000E+000
 ***********************************
 CURRENT ELEMENT NUMBER::::          45
 NUMBER OF NODES:::           4
 DOFs:::           2
 TOTAL DOF OF ELEMENT:::           12
 ************************************
          45
 AREA1  0.000000000000000E+000
 AREA2  0.000000000000000E+000
 U1x  =  0.000000000000000E+000
 U1y  =  0.000000000000000E+000
 Phi1 =  0.000000000000000E+000
 U2x  =  0.000000000000000E+000
 U2y  =  0.000000000000000E+000
 Phi2 =  0.000000000000000E+000
 U3x  =  0.000000000000000E+000
 U3y  =  0.000000000000000E+000
 Phi3 =  0.000000000000000E+000
 U4x  =  0.000000000000000E+000
 U4y  =  0.000000000000000E+000
 Phi4 =  0.000000000000000E+000
 ***********************************
 CURRENT ELEMENT NUMBER::::          46
 NUMBER OF NODES:::           4
 DOFs:::           2
 TOTAL DOF OF ELEMENT:::           12
 ************************************
          46
 AREA1  0.000000000000000E+000
 AREA2  0.000000000000000E+000
 U1x  =  0.000000000000000E+000
 U1y  =  0.000000000000000E+000
 Phi1 =  0.000000000000000E+000
 U2x  =  0.000000000000000E+000
 U2y  =  0.000000000000000E+000
 Phi2 =  0.000000000000000E+000
 U3x  =  0.000000000000000E+000
 U3y  =  0.000000000000000E+000
 Phi3 =  0.000000000000000E+000
 U4x  =  0.000000000000000E+000
 U4y  =  0.000000000000000E+000
 Phi4 =  0.000000000000000E+000
 ***********************************
 CURRENT ELEMENT NUMBER::::          47
 NUMBER OF NODES:::           4
 DOFs:::           2
 TOTAL DOF OF ELEMENT:::           12
 ************************************
          47
 AREA1  0.000000000000000E+000
 AREA2  0.000000000000000E+000
 U1x  =  0.000000000000000E+000
 U1y  =  0.000000000000000E+000
 Phi1 =  0.000000000000000E+000
 U2x  =  0.000000000000000E+000
 U2y  =  0.000000000000000E+000
 Phi2 =  0.000000000000000E+000
 U3x  =  0.000000000000000E+000
 U3y  =  0.000000000000000E+000
 Phi3 =  0.000000000000000E+000
 U4x  =  0.000000000000000E+000
 U4y  =  0.000000000000000E+000
 Phi4 =  0.000000000000000E+000
 ***********************************
 CURRENT ELEMENT NUMBER::::          48
 NUMBER OF NODES:::           4
 DOFs:::           2
 TOTAL DOF OF ELEMENT:::           12
 ************************************
          48
 AREA1  0.000000000000000E+000
 AREA2  0.000000000000000E+000
 U1x  =  0.000000000000000E+000
 U1y  =  0.000000000000000E+000
 Phi1 =  0.000000000000000E+000
 U2x  =  0.000000000000000E+000
 U2y  =  0.000000000000000E+000
 Phi2 =  0.000000000000000E+000
 U3x  =  0.000000000000000E+000
 U3y  =  0.000000000000000E+000
 Phi3 =  0.000000000000000E+000
 U4x  =  0.000000000000000E+000
 U4y  =  0.000000000000000E+000
 Phi4 =  0.000000000000000E+000
 ***********************************
 CURRENT ELEMENT NUMBER::::          49
 NUMBER OF NODES:::           4
 DOFs:::           2
 TOTAL DOF OF ELEMENT:::           12
 ************************************
          49
 AREA1  0.000000000000000E+000
 AREA2  0.000000000000000E+000
 U1x  =  0.000000000000000E+000
 U1y  =  0.000000000000000E+000
 Phi1 =  0.000000000000000E+000
 U2x  =  0.000000000000000E+000
 U2y  =  0.000000000000000E+000
 Phi2 =  0.000000000000000E+000
 U3x  =  0.000000000000000E+000
 U3y  =  0.000000000000000E+000
 Phi3 =  0.000000000000000E+000
 U4x  =  0.000000000000000E+000
 U4y  =  0.000000000000000E+000
 Phi4 =  0.000000000000000E+000
 ***********************************
 CURRENT ELEMENT NUMBER::::          50
 NUMBER OF NODES:::           4
 DOFs:::           2
 TOTAL DOF OF ELEMENT:::           12
 ************************************
          50
 AREA1  0.000000000000000E+000
 AREA2  0.000000000000000E+000
 U1x  =  0.000000000000000E+000
 U1y  =  0.000000000000000E+000
 Phi1 =  0.000000000000000E+000
 U2x  =  0.000000000000000E+000
 U2y  =  0.000000000000000E+000
 Phi2 =  0.000000000000000E+000
 U3x  =  0.000000000000000E+000
 U3y  =  0.000000000000000E+000
 Phi3 =  0.000000000000000E+000
 U4x  =  0.000000000000000E+000
 U4y  =  0.000000000000000E+000
 Phi4 =  0.000000000000000E+000
 ***********************************
 CURRENT ELEMENT NUMBER::::          51
 NUMBER OF NODES:::           4
 DOFs:::           2
 TOTAL DOF OF ELEMENT:::           12
 ************************************
          51
 AREA1  0.000000000000000E+000
 AREA2  0.000000000000000E+000
 U1x  =  0.000000000000000E+000
 U1y  =  0.000000000000000E+000
 Phi1 =  0.000000000000000E+000
 U2x  =  0.000000000000000E+000
 U2y  =  0.000000000000000E+000
 Phi2 =  0.000000000000000E+000
 U3x  =  0.000000000000000E+000
 U3y  =  0.000000000000000E+000
 Phi3 =  0.000000000000000E+000
 U4x  =  0.000000000000000E+000
 U4y  =  0.000000000000000E+000
 Phi4 =  0.000000000000000E+000
 ***********************************
 CURRENT ELEMENT NUMBER::::          52
 NUMBER OF NODES:::           4
 DOFs:::           2
 TOTAL DOF OF ELEMENT:::           12
 ************************************
          52
 AREA1  0.000000000000000E+000
 AREA2  0.000000000000000E+000
 U1x  =  0.000000000000000E+000
 U1y  =  0.000000000000000E+000
 Phi1 =  0.000000000000000E+000
 U2x  =  0.000000000000000E+000
 U2y  =  0.000000000000000E+000
 Phi2 =  0.000000000000000E+000
 U3x  =  0.000000000000000E+000
 U3y  =  0.000000000000000E+000
 Phi3 =  0.000000000000000E+000
 U4x  =  0.000000000000000E+000
 U4y  =  0.000000000000000E+000
 Phi4 =  0.000000000000000E+000
 ***********************************
 CURRENT ELEMENT NUMBER::::          53
 NUMBER OF NODES:::           4
 DOFs:::           2
 TOTAL DOF OF ELEMENT:::           12
 ************************************
          53
 AREA1  0.000000000000000E+000
 AREA2  0.000000000000000E+000
 U1x  =  0.000000000000000E+000
 U1y  =  0.000000000000000E+000
 Phi1 =  0.000000000000000E+000
 U2x  =  0.000000000000000E+000
 U2y  =  0.000000000000000E+000
 Phi2 =  0.000000000000000E+000
 U3x  =  0.000000000000000E+000
 U3y  =  0.000000000000000E+000
 Phi3 =  0.000000000000000E+000
 U4x  =  0.000000000000000E+000
 U4y  =  0.000000000000000E+000
 Phi4 =  0.000000000000000E+000
 ***********************************
 CURRENT ELEMENT NUMBER::::          54
 NUMBER OF NODES:::           4
 DOFs:::           2
 TOTAL DOF OF ELEMENT:::           12
 ************************************
          54
 AREA1  0.000000000000000E+000
 AREA2  0.000000000000000E+000
 U1x  =  0.000000000000000E+000
 U1y  =  0.000000000000000E+000
 Phi1 =  0.000000000000000E+000
 U2x  =  0.000000000000000E+000
 U2y  =  0.000000000000000E+000
 Phi2 =  0.000000000000000E+000
 U3x  =  0.000000000000000E+000
 U3y  =  0.000000000000000E+000
 Phi3 =  0.000000000000000E+000
 U4x  =  0.000000000000000E+000
 U4y  =  0.000000000000000E+000
 Phi4 =  0.000000000000000E+000
 ***********************************
 CURRENT ELEMENT NUMBER::::          55
 NUMBER OF NODES:::           4
 DOFs:::           2
 TOTAL DOF OF ELEMENT:::           12
 ************************************
          55
 AREA1  0.000000000000000E+000
 AREA2  0.000000000000000E+000
 U1x  =  0.000000000000000E+000
 U1y  =  0.000000000000000E+000
 Phi1 =  0.000000000000000E+000
 U2x  =  0.000000000000000E+000
 U2y  =  0.000000000000000E+000
 Phi2 =  0.000000000000000E+000
 U3x  =  0.000000000000000E+000
 U3y  =  0.000000000000000E+000
 Phi3 =  0.000000000000000E+000
 U4x  =  0.000000000000000E+000
 U4y  =  0.000000000000000E+000
 Phi4 =  0.000000000000000E+000
 ***********************************
 CURRENT ELEMENT NUMBER::::          56
 NUMBER OF NODES:::           4
 DOFs:::           2
 TOTAL DOF OF ELEMENT:::           12
 ************************************
          56
 AREA1  0.000000000000000E+000
 AREA2  0.000000000000000E+000
 U1x  =  0.000000000000000E+000
 U1y  =  0.000000000000000E+000
 Phi1 =  0.000000000000000E+000
 U2x  =  0.000000000000000E+000
 U2y  =  0.000000000000000E+000
 Phi2 =  0.000000000000000E+000
 U3x  =  0.000000000000000E+000
 U3y  =  0.000000000000000E+000
 Phi3 =  0.000000000000000E+000
 U4x  =  0.000000000000000E+000
 U4y  =  0.000000000000000E+000
 Phi4 =  0.000000000000000E+000
 ***********************************
 CURRENT ELEMENT NUMBER::::          57
 NUMBER OF NODES:::           4
 DOFs:::           2
 TOTAL DOF OF ELEMENT:::           12
 ************************************
          57
 AREA1  0.000000000000000E+000
 AREA2  0.000000000000000E+000
 U1x  =  0.000000000000000E+000
 U1y  =  0.000000000000000E+000
 Phi1 =  0.000000000000000E+000
 U2x  =  0.000000000000000E+000
 U2y  =  0.000000000000000E+000
 Phi2 =  0.000000000000000E+000
 U3x  =  0.000000000000000E+000
 U3y  =  0.000000000000000E+000
 Phi3 =  0.000000000000000E+000
 U4x  =  0.000000000000000E+000
 U4y  =  0.000000000000000E+000
 Phi4 =  0.000000000000000E+000
 ***********************************
 CURRENT ELEMENT NUMBER::::          58
 NUMBER OF NODES:::           4
 DOFs:::           2
 TOTAL DOF OF ELEMENT:::           12
 ************************************
          58
 AREA1  0.000000000000000E+000
 AREA2  0.000000000000000E+000
 U1x  =  0.000000000000000E+000
 U1y  =  0.000000000000000E+000
 Phi1 =  0.000000000000000E+000
 U2x  =  0.000000000000000E+000
 U2y  =  0.000000000000000E+000
 Phi2 =  0.000000000000000E+000
 U3x  =  0.000000000000000E+000
 U3y  =  0.000000000000000E+000
 Phi3 =  0.000000000000000E+000
 U4x  =  0.000000000000000E+000
 U4y  =  0.000000000000000E+000
 Phi4 =  0.000000000000000E+000
 ***********************************
 CURRENT ELEMENT NUMBER::::          59
 NUMBER OF NODES:::           4
 DOFs:::           2
 TOTAL DOF OF ELEMENT:::           12
 ************************************
          59
 AREA1  0.000000000000000E+000
 AREA2  0.000000000000000E+000
 U1x  =  0.000000000000000E+000
 U1y  =  0.000000000000000E+000
 Phi1 =  0.000000000000000E+000
 U2x  =  0.000000000000000E+000
 U2y  =  0.000000000000000E+000
 Phi2 =  0.000000000000000E+000
 U3x  =  0.000000000000000E+000
 U3y  =  0.000000000000000E+000
 Phi3 =  0.000000000000000E+000
 U4x  =  0.000000000000000E+000
 U4y  =  0.000000000000000E+000
 Phi4 =  0.000000000000000E+000
 ***********************************
 CURRENT ELEMENT NUMBER::::          60
 NUMBER OF NODES:::           4
 DOFs:::           2
 TOTAL DOF OF ELEMENT:::           12
 ************************************
          60
 AREA1  0.000000000000000E+000
 AREA2  0.000000000000000E+000
 U1x  =  0.000000000000000E+000
 U1y  =  0.000000000000000E+000
 Phi1 =  0.000000000000000E+000
 U2x  =  0.000000000000000E+000
 U2y  =  0.000000000000000E+000
 Phi2 =  0.000000000000000E+000
 U3x  =  0.000000000000000E+000
 U3y  =  0.000000000000000E+000
 Phi3 =  0.000000000000000E+000
 U4x  =  0.000000000000000E+000
 U4y  =  0.000000000000000E+000
 Phi4 =  0.000000000000000E+000
 ***********************************
 CURRENT ELEMENT NUMBER::::          61
 NUMBER OF NODES:::           4
 DOFs:::           2
 TOTAL DOF OF ELEMENT:::           12
 ************************************
          61
 AREA1  0.000000000000000E+000
 AREA2  0.000000000000000E+000
 U1x  =  0.000000000000000E+000
 U1y  =  0.000000000000000E+000
 Phi1 =  0.000000000000000E+000
 U2x  =  0.000000000000000E+000
 U2y  =  0.000000000000000E+000
 Phi2 =  0.000000000000000E+000
 U3x  =  0.000000000000000E+000
 U3y  =  0.000000000000000E+000
 Phi3 =  0.000000000000000E+000
 U4x  =  0.000000000000000E+000
 U4y  =  0.000000000000000E+000
 Phi4 =  0.000000000000000E+000
 ***********************************
 CURRENT ELEMENT NUMBER::::          62
 NUMBER OF NODES:::           4
 DOFs:::           2
 TOTAL DOF OF ELEMENT:::           12
 ************************************
          62
 AREA1  0.000000000000000E+000
 AREA2  0.000000000000000E+000
 U1x  =  0.000000000000000E+000
 U1y  =  0.000000000000000E+000
 Phi1 =  0.000000000000000E+000
 U2x  =  0.000000000000000E+000
 U2y  =  0.000000000000000E+000
 Phi2 =  0.000000000000000E+000
 U3x  =  0.000000000000000E+000
 U3y  =  0.000000000000000E+000
 Phi3 =  0.000000000000000E+000
 U4x  =  0.000000000000000E+000
 U4y  =  0.000000000000000E+000
 Phi4 =  0.000000000000000E+000
 ***********************************
 CURRENT ELEMENT NUMBER::::          63
 NUMBER OF NODES:::           4
 DOFs:::           2
 TOTAL DOF OF ELEMENT:::           12
 ************************************
          63
 AREA1  0.000000000000000E+000
 AREA2  0.000000000000000E+000
 U1x  =  0.000000000000000E+000
 U1y  =  0.000000000000000E+000
 Phi1 =  0.000000000000000E+000
 U2x  =  0.000000000000000E+000
 U2y  =  0.000000000000000E+000
 Phi2 =  0.000000000000000E+000
 U3x  =  0.000000000000000E+000
 U3y  =  0.000000000000000E+000
 Phi3 =  0.000000000000000E+000
 U4x  =  0.000000000000000E+000
 U4y  =  0.000000000000000E+000
 Phi4 =  0.000000000000000E+000
 ***********************************
 CURRENT ELEMENT NUMBER::::          64
 NUMBER OF NODES:::           4
 DOFs:::           2
 TOTAL DOF OF ELEMENT:::           12
 ************************************
          64
 AREA1  0.000000000000000E+000
 AREA2  0.000000000000000E+000
 U1x  =  0.000000000000000E+000
 U1y  =  0.000000000000000E+000
 Phi1 =  0.000000000000000E+000
 U2x  =  0.000000000000000E+000
 U2y  =  0.000000000000000E+000
 Phi2 =  0.000000000000000E+000
 U3x  =  0.000000000000000E+000
 U3y  =  0.000000000000000E+000
 Phi3 =  0.000000000000000E+000
 U4x  =  0.000000000000000E+000
 U4y  =  0.000000000000000E+000
 Phi4 =  0.000000000000000E+000


  INCREMENT     1 STARTS. ATTEMPT NUMBER  1, TIME INCREMENT   1.00    
 ***********************************
 CURRENT ELEMENT NUMBER::::           1
 NUMBER OF NODES:::           4
 DOFs:::           2
 TOTAL DOF OF ELEMENT:::           12
 ************************************
           1
 AREA1  0.000000000000000E+000
 AREA2  0.000000000000000E+000
 U1x  =  0.000000000000000E+000
 U1y  =  0.000000000000000E+000
 Phi1 =  0.000000000000000E+000
 U2x  =  0.000000000000000E+000
 U2y  =  0.000000000000000E+000
 Phi2 =  0.000000000000000E+000
 U3x  =  0.000000000000000E+000
 U3y  =  0.000000000000000E+000
 Phi3 =  0.000000000000000E+000
 U4x  =  0.000000000000000E+000
 U4y  =  0.000000000000000E+000
 Phi4 =  0.000000000000000E+000
 ***********************************
 CURRENT ELEMENT NUMBER::::           2
 NUMBER OF NODES:::           4
 DOFs:::           2
 TOTAL DOF OF ELEMENT:::           12
 ************************************
           2
 AREA1  0.000000000000000E+000
 AREA2  0.000000000000000E+000
 U1x  =  0.000000000000000E+000
 U1y  =  0.000000000000000E+000
 Phi1 =  0.000000000000000E+000
 U2x  =  0.000000000000000E+000
 U2y  =  0.000000000000000E+000
 Phi2 =  0.000000000000000E+000
 U3x  =  0.000000000000000E+000
 U3y  =  0.000000000000000E+000
 Phi3 =  0.000000000000000E+000
 U4x  =  0.000000000000000E+000
 U4y  =  0.000000000000000E+000
 Phi4 =  0.000000000000000E+000
 ***********************************
 CURRENT ELEMENT NUMBER::::           3
 NUMBER OF NODES:::           4
 DOFs:::           2
 TOTAL DOF OF ELEMENT:::           12
 ************************************
           3
 AREA1  0.000000000000000E+000
 AREA2  0.000000000000000E+000
 U1x  =  0.000000000000000E+000
 U1y  =  0.000000000000000E+000
 Phi1 =  0.000000000000000E+000
 U2x  =  0.000000000000000E+000
 U2y  =  0.000000000000000E+000
 Phi2 =  0.000000000000000E+000
 U3x  =  0.000000000000000E+000
 U3y  =  0.000000000000000E+000
 Phi3 =  0.000000000000000E+000
 U4x  =  0.000000000000000E+000
 U4y  =  0.000000000000000E+000
 Phi4 =  0.000000000000000E+000
 ***********************************
 CURRENT ELEMENT NUMBER::::           4
 NUMBER OF NODES:::           4
 DOFs:::           2
 TOTAL DOF OF ELEMENT:::           12
 ************************************
           4
 AREA1  0.000000000000000E+000
 AREA2  0.000000000000000E+000
 U1x  =  0.000000000000000E+000
 U1y  =  0.000000000000000E+000
 Phi1 =  0.000000000000000E+000
 U2x  =  0.000000000000000E+000
 U2y  =  0.000000000000000E+000
 Phi2 =  0.000000000000000E+000
 U3x  =  0.000000000000000E+000
 U3y  =  0.000000000000000E+000
 Phi3 =  0.000000000000000E+000
 U4x  =  0.000000000000000E+000
 U4y  =  0.000000000000000E+000
 Phi4 =  0.000000000000000E+000
 ***********************************
 CURRENT ELEMENT NUMBER::::           5
 NUMBER OF NODES:::           4
 DOFs:::           2
 TOTAL DOF OF ELEMENT:::           12
 ************************************
           5
 AREA1  0.000000000000000E+000
 AREA2  0.000000000000000E+000
 U1x  =  0.000000000000000E+000
 U1y  =  0.000000000000000E+000
 Phi1 =  0.000000000000000E+000
 U2x  =  0.000000000000000E+000
 U2y  =  0.000000000000000E+000
 Phi2 =  0.000000000000000E+000
 U3x  =  0.000000000000000E+000
 U3y  =  0.000000000000000E+000
 Phi3 =  0.000000000000000E+000
 U4x  =  0.000000000000000E+000
 U4y  =  0.000000000000000E+000
 Phi4 =  0.000000000000000E+000
 ***********************************
 CURRENT ELEMENT NUMBER::::           6
 NUMBER OF NODES:::           4
 DOFs:::           2
 TOTAL DOF OF ELEMENT:::           12
 ************************************
           6
 AREA1  0.000000000000000E+000
 AREA2  0.000000000000000E+000
 U1x  =  0.000000000000000E+000
 U1y  =  0.000000000000000E+000
 Phi1 =  0.000000000000000E+000
 U2x  =  0.000000000000000E+000
 U2y  =  0.000000000000000E+000
 Phi2 =  0.000000000000000E+000
 U3x  =  0.000000000000000E+000
 U3y  =  0.000000000000000E+000
 Phi3 =  0.000000000000000E+000
 U4x  =  0.000000000000000E+000
 U4y  =  0.000000000000000E+000
 Phi4 =  0.000000000000000E+000
 ***********************************
 CURRENT ELEMENT NUMBER::::           7
 NUMBER OF NODES:::           4
 DOFs:::           2
 TOTAL DOF OF ELEMENT:::           12
 ************************************
           7
 AREA1  0.000000000000000E+000
 AREA2  0.000000000000000E+000
 U1x  =  0.000000000000000E+000
 U1y  =  0.000000000000000E+000
 Phi1 =  0.000000000000000E+000
 U2x  =  0.000000000000000E+000
 U2y  =  0.000000000000000E+000
 Phi2 =  0.000000000000000E+000
 U3x  =  0.000000000000000E+000
 U3y  =  0.000000000000000E+000
 Phi3 =  0.000000000000000E+000
 U4x  =  0.000000000000000E+000
 U4y  =  0.000000000000000E+000
 Phi4 =  0.000000000000000E+000
 ***********************************
 CURRENT ELEMENT NUMBER::::           8
 NUMBER OF NODES:::           4
 DOFs:::           2
 TOTAL DOF OF ELEMENT:::           12
 ************************************
           8
 AREA1  0.000000000000000E+000
 AREA2  0.000000000000000E+000
 U1x  =  0.000000000000000E+000
 U1y  =  0.000000000000000E+000
 Phi1 =  0.000000000000000E+000
 U2x  =  0.000000000000000E+000
 U2y  =  0.000000000000000E+000
 Phi2 =  0.000000000000000E+000
 U3x  =  0.000000000000000E+000
 U3y  =  0.000000000000000E+000
 Phi3 =  0.000000000000000E+000
 U4x  =  0.000000000000000E+000
 U4y  =  0.000000000000000E+000
 Phi4 =  0.000000000000000E+000
 ***********************************
 CURRENT ELEMENT NUMBER::::           9
 NUMBER OF NODES:::           4
 DOFs:::           2
 TOTAL DOF OF ELEMENT:::           12
 ************************************
           9
 AREA1  0.000000000000000E+000
 AREA2  0.000000000000000E+000
 U1x  =  0.000000000000000E+000
 U1y  =  0.000000000000000E+000
 Phi1 =  0.000000000000000E+000
 U2x  =  0.000000000000000E+000
 U2y  =  0.000000000000000E+000
 Phi2 =  0.000000000000000E+000
 U3x  =  0.000000000000000E+000
 U3y  =  0.000000000000000E+000
 Phi3 =  0.000000000000000E+000
 U4x  =  0.000000000000000E+000
 U4y  =  0.000000000000000E+000
 Phi4 =  0.000000000000000E+000
 ***********************************
 CURRENT ELEMENT NUMBER::::          10
 NUMBER OF NODES:::           4
 DOFs:::           2
 TOTAL DOF OF ELEMENT:::           12
 ************************************
          10
 AREA1  0.000000000000000E+000
 AREA2  0.000000000000000E+000
 U1x  =  0.000000000000000E+000
 U1y  =  0.000000000000000E+000
 Phi1 =  0.000000000000000E+000
 U2x  =  0.000000000000000E+000
 U2y  =  0.000000000000000E+000
 Phi2 =  0.000000000000000E+000
 U3x  =  0.000000000000000E+000
 U3y  =  0.000000000000000E+000
 Phi3 =  0.000000000000000E+000
 U4x  =  0.000000000000000E+000
 U4y  =  0.000000000000000E+000
 Phi4 =  0.000000000000000E+000
 ***********************************
 CURRENT ELEMENT NUMBER::::          11
 NUMBER OF NODES:::           4
 DOFs:::           2
 TOTAL DOF OF ELEMENT:::           12
 ************************************
          11
 AREA1  0.000000000000000E+000
 AREA2  0.000000000000000E+000
 U1x  =  0.000000000000000E+000
 U1y  =  0.000000000000000E+000
 Phi1 =  0.000000000000000E+000
 U2x  =  0.000000000000000E+000
 U2y  =  0.000000000000000E+000
 Phi2 =  0.000000000000000E+000
 U3x  =  0.000000000000000E+000
 U3y  =  0.000000000000000E+000
 Phi3 =  0.000000000000000E+000
 U4x  =  0.000000000000000E+000
 U4y  =  0.000000000000000E+000
 Phi4 =  0.000000000000000E+000
 ***********************************
 CURRENT ELEMENT NUMBER::::          12
 NUMBER OF NODES:::           4
 DOFs:::           2
 TOTAL DOF OF ELEMENT:::           12
 ************************************
          12
 AREA1  0.000000000000000E+000
 AREA2  0.000000000000000E+000
 U1x  =  0.000000000000000E+000
 U1y  =  0.000000000000000E+000
 Phi1 =  0.000000000000000E+000
 U2x  =  0.000000000000000E+000
 U2y  =  0.000000000000000E+000
 Phi2 =  0.000000000000000E+000
 U3x  =  0.000000000000000E+000
 U3y  =  0.000000000000000E+000
 Phi3 =  0.000000000000000E+000
 U4x  =  0.000000000000000E+000
 U4y  =  0.000000000000000E+000
 Phi4 =  0.000000000000000E+000
 ***********************************
 CURRENT ELEMENT NUMBER::::          13
 NUMBER OF NODES:::           4
 DOFs:::           2
 TOTAL DOF OF ELEMENT:::           12
 ************************************
          13
 AREA1  0.000000000000000E+000
 AREA2  0.000000000000000E+000
 U1x  =  0.000000000000000E+000
 U1y  =  0.000000000000000E+000
 Phi1 =  0.000000000000000E+000
 U2x  =  0.000000000000000E+000
 U2y  =  0.000000000000000E+000
 Phi2 =  0.000000000000000E+000
 U3x  =  0.000000000000000E+000
 U3y  =  0.000000000000000E+000
 Phi3 =  0.000000000000000E+000
 U4x  =  0.000000000000000E+000
 U4y  =  0.000000000000000E+000
 Phi4 =  0.000000000000000E+000
 ***********************************
 CURRENT ELEMENT NUMBER::::          14
 NUMBER OF NODES:::           4
 DOFs:::           2
 TOTAL DOF OF ELEMENT:::           12
 ************************************
          14
 AREA1  0.000000000000000E+000
 AREA2  0.000000000000000E+000
 U1x  =  0.000000000000000E+000
 U1y  =  0.000000000000000E+000
 Phi1 =  0.000000000000000E+000
 U2x  =  0.000000000000000E+000
 U2y  =  0.000000000000000E+000
 Phi2 =  0.000000000000000E+000
 U3x  =  0.000000000000000E+000
 U3y  =  0.000000000000000E+000
 Phi3 =  0.000000000000000E+000
 U4x  =  0.000000000000000E+000
 U4y  =  0.000000000000000E+000
 Phi4 =  0.000000000000000E+000
 ***********************************
 CURRENT ELEMENT NUMBER::::          15
 NUMBER OF NODES:::           4
 DOFs:::           2
 TOTAL DOF OF ELEMENT:::           12
 ************************************
          15
 AREA1  0.000000000000000E+000
 AREA2  0.000000000000000E+000
 U1x  =  0.000000000000000E+000
 U1y  =  0.000000000000000E+000
 Phi1 =  0.000000000000000E+000
 U2x  =  0.000000000000000E+000
 U2y  =  0.000000000000000E+000
 Phi2 =  0.000000000000000E+000
 U3x  =  0.000000000000000E+000
 U3y  =  0.000000000000000E+000
 Phi3 =  0.000000000000000E+000
 U4x  =  0.000000000000000E+000
 U4y  =  0.000000000000000E+000
 Phi4 =  0.000000000000000E+000
 ***********************************
 CURRENT ELEMENT NUMBER::::          16
 NUMBER OF NODES:::           4
 DOFs:::           2
 TOTAL DOF OF ELEMENT:::           12
 ************************************
          16
 AREA1  0.000000000000000E+000
 AREA2  0.000000000000000E+000
 U1x  =  0.000000000000000E+000
 U1y  =  0.000000000000000E+000
 Phi1 =  0.000000000000000E+000
 U2x  =  0.000000000000000E+000
 U2y  =  0.000000000000000E+000
 Phi2 =  0.000000000000000E+000
 U3x  =  0.000000000000000E+000
 U3y  =  0.000000000000000E+000
 Phi3 =  0.000000000000000E+000
 U4x  =  0.000000000000000E+000
 U4y  =  0.000000000000000E+000
 Phi4 =  0.000000000000000E+000
 ***********************************
 CURRENT ELEMENT NUMBER::::          17
 NUMBER OF NODES:::           4
 DOFs:::           2
 TOTAL DOF OF ELEMENT:::           12
 ************************************
          17
 AREA1  0.000000000000000E+000
 AREA2  0.000000000000000E+000
 U1x  =  0.000000000000000E+000
 U1y  =  0.000000000000000E+000
 Phi1 =  0.000000000000000E+000
 U2x  =  0.000000000000000E+000
 U2y  =  0.000000000000000E+000
 Phi2 =  0.000000000000000E+000
 U3x  =  0.000000000000000E+000
 U3y  =  0.000000000000000E+000
 Phi3 =  0.000000000000000E+000
 U4x  =  0.000000000000000E+000
 U4y  =  0.000000000000000E+000
 Phi4 =  0.000000000000000E+000
 ***********************************
 CURRENT ELEMENT NUMBER::::          18
 NUMBER OF NODES:::           4
 DOFs:::           2
 TOTAL DOF OF ELEMENT:::           12
 ************************************
          18
 AREA1  0.000000000000000E+000
 AREA2  0.000000000000000E+000
 U1x  =  0.000000000000000E+000
 U1y  =  0.000000000000000E+000
 Phi1 =  0.000000000000000E+000
 U2x  =  0.000000000000000E+000
 U2y  =  0.000000000000000E+000
 Phi2 =  0.000000000000000E+000
 U3x  =  0.000000000000000E+000
 U3y  =  0.000000000000000E+000
 Phi3 =  0.000000000000000E+000
 U4x  =  0.000000000000000E+000
 U4y  =  0.000000000000000E+000
 Phi4 =  0.000000000000000E+000
 ***********************************
 CURRENT ELEMENT NUMBER::::          19
 NUMBER OF NODES:::           4
 DOFs:::           2
 TOTAL DOF OF ELEMENT:::           12
 ************************************
          19
 AREA1  0.000000000000000E+000
 AREA2  0.000000000000000E+000
 U1x  =  0.000000000000000E+000
 U1y  =  0.000000000000000E+000
 Phi1 =  0.000000000000000E+000
 U2x  =  0.000000000000000E+000
 U2y  =  0.000000000000000E+000
 Phi2 =  0.000000000000000E+000
 U3x  =  0.000000000000000E+000
 U3y  =  0.000000000000000E+000
 Phi3 =  0.000000000000000E+000
 U4x  =  0.000000000000000E+000
 U4y  =  0.000000000000000E+000
 Phi4 =  0.000000000000000E+000
 ***********************************
 CURRENT ELEMENT NUMBER::::          20
 NUMBER OF NODES:::           4
 DOFs:::           2
 TOTAL DOF OF ELEMENT:::           12
 ************************************
          20
 AREA1  0.000000000000000E+000
 AREA2  0.000000000000000E+000
 U1x  =  0.000000000000000E+000
 U1y  =  0.000000000000000E+000
 Phi1 =  0.000000000000000E+000
 U2x  =  0.000000000000000E+000
 U2y  =  0.000000000000000E+000
 Phi2 =  0.000000000000000E+000
 U3x  =  0.000000000000000E+000
 U3y  =  0.000000000000000E+000
 Phi3 =  0.000000000000000E+000
 U4x  =  0.000000000000000E+000
 U4y  =  0.000000000000000E+000
 Phi4 =  0.000000000000000E+000
 ***********************************
 CURRENT ELEMENT NUMBER::::          21
 NUMBER OF NODES:::           4
 DOFs:::           2
 TOTAL DOF OF ELEMENT:::           12
 ************************************
          21
 AREA1  0.000000000000000E+000
 AREA2  0.000000000000000E+000
 U1x  =  0.000000000000000E+000
 U1y  =  0.000000000000000E+000
 Phi1 =  0.000000000000000E+000
 U2x  =  0.000000000000000E+000
 U2y  =  0.000000000000000E+000
 Phi2 =  0.000000000000000E+000
 U3x  =  0.000000000000000E+000
 U3y  =  0.000000000000000E+000
 Phi3 =  0.000000000000000E+000
 U4x  =  0.000000000000000E+000
 U4y  =  0.000000000000000E+000
 Phi4 =  0.000000000000000E+000
 ***********************************
 CURRENT ELEMENT NUMBER::::          22
 NUMBER OF NODES:::           4
 DOFs:::           2
 TOTAL DOF OF ELEMENT:::           12
 ************************************
          22
 AREA1  0.000000000000000E+000
 AREA2  0.000000000000000E+000
 U1x  =  0.000000000000000E+000
 U1y  =  0.000000000000000E+000
 Phi1 =  0.000000000000000E+000
 U2x  =  0.000000000000000E+000
 U2y  =  0.000000000000000E+000
 Phi2 =  0.000000000000000E+000
 U3x  =  0.000000000000000E+000
 U3y  =  0.000000000000000E+000
 Phi3 =  0.000000000000000E+000
 U4x  =  0.000000000000000E+000
 U4y  =  0.000000000000000E+000
 Phi4 =  0.000000000000000E+000
 ***********************************
 CURRENT ELEMENT NUMBER::::          23
 NUMBER OF NODES:::           4
 DOFs:::           2
 TOTAL DOF OF ELEMENT:::           12
 ************************************
          23
 AREA1  0.000000000000000E+000
 AREA2  0.000000000000000E+000
 U1x  =  0.000000000000000E+000
 U1y  =  0.000000000000000E+000
 Phi1 =  0.000000000000000E+000
 U2x  =  0.000000000000000E+000
 U2y  =  0.000000000000000E+000
 Phi2 =  0.000000000000000E+000
 U3x  =  0.000000000000000E+000
 U3y  =  0.000000000000000E+000
 Phi3 =  0.000000000000000E+000
 U4x  =  0.000000000000000E+000
 U4y  =  0.000000000000000E+000
 Phi4 =  0.000000000000000E+000
 ***********************************
 CURRENT ELEMENT NUMBER::::          24
 NUMBER OF NODES:::           4
 DOFs:::           2
 TOTAL DOF OF ELEMENT:::           12
 ************************************
          24
 AREA1  0.000000000000000E+000
 AREA2  0.000000000000000E+000
 U1x  =  0.000000000000000E+000
 U1y  =  0.000000000000000E+000
 Phi1 =  0.000000000000000E+000
 U2x  =  0.000000000000000E+000
 U2y  =  0.000000000000000E+000
 Phi2 =  0.000000000000000E+000
 U3x  =  0.000000000000000E+000
 U3y  =  0.000000000000000E+000
 Phi3 =  0.000000000000000E+000
 U4x  =  0.000000000000000E+000
 U4y  =  0.000000000000000E+000
 Phi4 =  0.000000000000000E+000
 ***********************************
 CURRENT ELEMENT NUMBER::::          25
 NUMBER OF NODES:::           4
 DOFs:::           2
 TOTAL DOF OF ELEMENT:::           12
 ************************************
          25
 AREA1  0.000000000000000E+000
 AREA2  0.000000000000000E+000
 U1x  =  0.000000000000000E+000
 U1y  =  0.000000000000000E+000
 Phi1 =  0.000000000000000E+000
 U2x  =  0.000000000000000E+000
 U2y  =  0.000000000000000E+000
 Phi2 =  0.000000000000000E+000
 U3x  =  0.000000000000000E+000
 U3y  =  0.000000000000000E+000
 Phi3 =  0.000000000000000E+000
 U4x  =  0.000000000000000E+000
 U4y  =  0.000000000000000E+000
 Phi4 =  0.000000000000000E+000
 ***********************************
 CURRENT ELEMENT NUMBER::::          26
 NUMBER OF NODES:::           4
 DOFs:::           2
 TOTAL DOF OF ELEMENT:::           12
 ************************************
          26
 AREA1  0.000000000000000E+000
 AREA2  0.000000000000000E+000
 U1x  =  0.000000000000000E+000
 U1y  =  0.000000000000000E+000
 Phi1 =  0.000000000000000E+000
 U2x  =  0.000000000000000E+000
 U2y  =  0.000000000000000E+000
 Phi2 =  0.000000000000000E+000
 U3x  =  0.000000000000000E+000
 U3y  =  0.000000000000000E+000
 Phi3 =  0.000000000000000E+000
 U4x  =  0.000000000000000E+000
 U4y  =  0.000000000000000E+000
 Phi4 =  0.000000000000000E+000
 ***********************************
 CURRENT ELEMENT NUMBER::::          27
 NUMBER OF NODES:::           4
 DOFs:::           2
 TOTAL DOF OF ELEMENT:::           12
 ************************************
          27
 AREA1  0.000000000000000E+000
 AREA2  0.000000000000000E+000
 U1x  =  0.000000000000000E+000
 U1y  =  0.000000000000000E+000
 Phi1 =  0.000000000000000E+000
 U2x  =  0.000000000000000E+000
 U2y  =  0.000000000000000E+000
 Phi2 =  0.000000000000000E+000
 U3x  =  0.000000000000000E+000
 U3y  =  0.000000000000000E+000
 Phi3 =  0.000000000000000E+000
 U4x  =  0.000000000000000E+000
 U4y  =  0.000000000000000E+000
 Phi4 =  0.000000000000000E+000
 ***********************************
 CURRENT ELEMENT NUMBER::::          28
 NUMBER OF NODES:::           4
 DOFs:::           2
 TOTAL DOF OF ELEMENT:::           12
 ************************************
          28
 AREA1  0.000000000000000E+000
 AREA2  0.000000000000000E+000
 U1x  =  0.000000000000000E+000
 U1y  =  0.000000000000000E+000
 Phi1 =  0.000000000000000E+000
 U2x  =  0.000000000000000E+000
 U2y  =  0.000000000000000E+000
 Phi2 =  0.000000000000000E+000
 U3x  =  0.000000000000000E+000
 U3y  =  0.000000000000000E+000
 Phi3 =  0.000000000000000E+000
 U4x  =  0.000000000000000E+000
 U4y  =  0.000000000000000E+000
 Phi4 =  0.000000000000000E+000
 ***********************************
 CURRENT ELEMENT NUMBER::::          29
 NUMBER OF NODES:::           4
 DOFs:::           2
 TOTAL DOF OF ELEMENT:::           12
 ************************************
          29
 AREA1  0.000000000000000E+000
 AREA2  0.000000000000000E+000
 U1x  =  0.000000000000000E+000
 U1y  =  0.000000000000000E+000
 Phi1 =  0.000000000000000E+000
 U2x  =  0.000000000000000E+000
 U2y  =  0.000000000000000E+000
 Phi2 =  0.000000000000000E+000
 U3x  =  0.000000000000000E+000
 U3y  =  0.000000000000000E+000
 Phi3 =  0.000000000000000E+000
 U4x  =  0.000000000000000E+000
 U4y  =  0.000000000000000E+000
 Phi4 =  0.000000000000000E+000
 ***********************************
 CURRENT ELEMENT NUMBER::::          30
 NUMBER OF NODES:::           4
 DOFs:::           2
 TOTAL DOF OF ELEMENT:::           12
 ************************************
          30
 AREA1  0.000000000000000E+000
 AREA2  0.000000000000000E+000
 U1x  =  0.000000000000000E+000
 U1y  =  0.000000000000000E+000
 Phi1 =  0.000000000000000E+000
 U2x  =  0.000000000000000E+000
 U2y  =  0.000000000000000E+000
 Phi2 =  0.000000000000000E+000
 U3x  =  0.000000000000000E+000
 U3y  =  0.000000000000000E+000
 Phi3 =  0.000000000000000E+000
 U4x  =  0.000000000000000E+000
 U4y  =  0.000000000000000E+000
 Phi4 =  0.000000000000000E+000
 ***********************************
 CURRENT ELEMENT NUMBER::::          31
 NUMBER OF NODES:::           4
 DOFs:::           2
 TOTAL DOF OF ELEMENT:::           12
 ************************************
          31
 AREA1  0.000000000000000E+000
 AREA2  0.000000000000000E+000
 U1x  =  0.000000000000000E+000
 U1y  =  0.000000000000000E+000
 Phi1 =  0.000000000000000E+000
 U2x  =  0.000000000000000E+000
 U2y  =  0.000000000000000E+000
 Phi2 =  0.000000000000000E+000
 U3x  =  0.000000000000000E+000
 U3y  =  0.000000000000000E+000
 Phi3 =  0.000000000000000E+000
 U4x  =  0.000000000000000E+000
 U4y  =  0.000000000000000E+000
 Phi4 =  0.000000000000000E+000
 ***********************************
 CURRENT ELEMENT NUMBER::::          32
 NUMBER OF NODES:::           4
 DOFs:::           2
 TOTAL DOF OF ELEMENT:::           12
 ************************************
          32
 AREA1  0.000000000000000E+000
 AREA2  0.000000000000000E+000
 U1x  =  0.000000000000000E+000
 U1y  =  0.000000000000000E+000
 Phi1 =  0.000000000000000E+000
 U2x  =  0.000000000000000E+000
 U2y  =  0.000000000000000E+000
 Phi2 =  0.000000000000000E+000
 U3x  =  0.000000000000000E+000
 U3y  =  0.000000000000000E+000
 Phi3 =  0.000000000000000E+000
 U4x  =  0.000000000000000E+000
 U4y  =  0.000000000000000E+000
 Phi4 =  0.000000000000000E+000
 ***********************************
 CURRENT ELEMENT NUMBER::::          33
 NUMBER OF NODES:::           4
 DOFs:::           2
 TOTAL DOF OF ELEMENT:::           12
 ************************************
          33
 AREA1  0.000000000000000E+000
 AREA2  0.000000000000000E+000
 U1x  =  0.000000000000000E+000
 U1y  =  0.000000000000000E+000
 Phi1 =  0.000000000000000E+000
 U2x  =  0.000000000000000E+000
 U2y  =  0.000000000000000E+000
 Phi2 =  0.000000000000000E+000
 U3x  =  0.000000000000000E+000
 U3y  =  0.000000000000000E+000
 Phi3 =  0.000000000000000E+000
 U4x  =  0.000000000000000E+000
 U4y  =  0.000000000000000E+000
 Phi4 =  0.000000000000000E+000
 ***********************************
 CURRENT ELEMENT NUMBER::::          34
 NUMBER OF NODES:::           4
 DOFs:::           2
 TOTAL DOF OF ELEMENT:::           12
 ************************************
          34
 AREA1  0.000000000000000E+000
 AREA2  0.000000000000000E+000
 U1x  =  0.000000000000000E+000
 U1y  =  0.000000000000000E+000
 Phi1 =  0.000000000000000E+000
 U2x  =  0.000000000000000E+000
 U2y  =  0.000000000000000E+000
 Phi2 =  0.000000000000000E+000
 U3x  =  0.000000000000000E+000
 U3y  =  0.000000000000000E+000
 Phi3 =  0.000000000000000E+000
 U4x  =  0.000000000000000E+000
 U4y  =  0.000000000000000E+000
 Phi4 =  0.000000000000000E+000
 ***********************************
 CURRENT ELEMENT NUMBER::::          35
 NUMBER OF NODES:::           4
 DOFs:::           2
 TOTAL DOF OF ELEMENT:::           12
 ************************************
          35
 AREA1  0.000000000000000E+000
 AREA2  0.000000000000000E+000
 U1x  =  0.000000000000000E+000
 U1y  =  0.000000000000000E+000
 Phi1 =  0.000000000000000E+000
 U2x  =  0.000000000000000E+000
 U2y  =  0.000000000000000E+000
 Phi2 =  0.000000000000000E+000
 U3x  =  0.000000000000000E+000
 U3y  =  0.000000000000000E+000
 Phi3 =  0.000000000000000E+000
 U4x  =  0.000000000000000E+000
 U4y  =  0.000000000000000E+000
 Phi4 =  0.000000000000000E+000
 ***********************************
 CURRENT ELEMENT NUMBER::::          36
 NUMBER OF NODES:::           4
 DOFs:::           2
 TOTAL DOF OF ELEMENT:::           12
 ************************************
          36
 AREA1  0.000000000000000E+000
 AREA2  0.000000000000000E+000
 U1x  =  0.000000000000000E+000
 U1y  =  0.000000000000000E+000
 Phi1 =  0.000000000000000E+000
 U2x  =  0.000000000000000E+000
 U2y  =  0.000000000000000E+000
 Phi2 =  0.000000000000000E+000
 U3x  =  0.000000000000000E+000
 U3y  =  0.000000000000000E+000
 Phi3 =  0.000000000000000E+000
 U4x  =  0.000000000000000E+000
 U4y  =  0.000000000000000E+000
 Phi4 =  0.000000000000000E+000
 ***********************************
 CURRENT ELEMENT NUMBER::::          37
 NUMBER OF NODES:::           4
 DOFs:::           2
 TOTAL DOF OF ELEMENT:::           12
 ************************************
          37
 AREA1  0.000000000000000E+000
 AREA2  0.000000000000000E+000
 U1x  =  0.000000000000000E+000
 U1y  =  0.000000000000000E+000
 Phi1 =  0.000000000000000E+000
 U2x  =  0.000000000000000E+000
 U2y  =  0.000000000000000E+000
 Phi2 =  0.000000000000000E+000
 U3x  =  0.000000000000000E+000
 U3y  =  0.000000000000000E+000
 Phi3 =  0.000000000000000E+000
 U4x  =  0.000000000000000E+000
 U4y  =  0.000000000000000E+000
 Phi4 =  0.000000000000000E+000
 ***********************************
 CURRENT ELEMENT NUMBER::::          38
 NUMBER OF NODES:::           4
 DOFs:::           2
 TOTAL DOF OF ELEMENT:::           12
 ************************************
          38
 AREA1  0.000000000000000E+000
 AREA2  0.000000000000000E+000
 U1x  =  0.000000000000000E+000
 U1y  =  0.000000000000000E+000
 Phi1 =  0.000000000000000E+000
 U2x  =  0.000000000000000E+000
 U2y  =  0.000000000000000E+000
 Phi2 =  0.000000000000000E+000
 U3x  =  0.000000000000000E+000
 U3y  =  0.000000000000000E+000
 Phi3 =  0.000000000000000E+000
 U4x  =  0.000000000000000E+000
 U4y  =  0.000000000000000E+000
 Phi4 =  0.000000000000000E+000
 ***********************************
 CURRENT ELEMENT NUMBER::::          39
 NUMBER OF NODES:::           4
 DOFs:::           2
 TOTAL DOF OF ELEMENT:::           12
 ************************************
          39
 AREA1  0.000000000000000E+000
 AREA2  0.000000000000000E+000
 U1x  =  0.000000000000000E+000
 U1y  =  0.000000000000000E+000
 Phi1 =  0.000000000000000E+000
 U2x  =  0.000000000000000E+000
 U2y  =  0.000000000000000E+000
 Phi2 =  0.000000000000000E+000
 U3x  =  0.000000000000000E+000
 U3y  =  0.000000000000000E+000
 Phi3 =  0.000000000000000E+000
 U4x  =  0.000000000000000E+000
 U4y  =  0.000000000000000E+000
 Phi4 =  0.000000000000000E+000
 ***********************************
 CURRENT ELEMENT NUMBER::::          40
 NUMBER OF NODES:::           4
 DOFs:::           2
 TOTAL DOF OF ELEMENT:::           12
 ************************************
          40
 AREA1  0.000000000000000E+000
 AREA2  0.000000000000000E+000
 U1x  =  0.000000000000000E+000
 U1y  =  0.000000000000000E+000
 Phi1 =  0.000000000000000E+000
 U2x  =  0.000000000000000E+000
 U2y  =  0.000000000000000E+000
 Phi2 =  0.000000000000000E+000
 U3x  =  0.000000000000000E+000
 U3y  =  0.000000000000000E+000
 Phi3 =  0.000000000000000E+000
 U4x  =  0.000000000000000E+000
 U4y  =  0.000000000000000E+000
 Phi4 =  0.000000000000000E+000
 ***********************************
 CURRENT ELEMENT NUMBER::::          41
 NUMBER OF NODES:::           4
 DOFs:::           2
 TOTAL DOF OF ELEMENT:::           12
 ************************************
          41
 AREA1  0.000000000000000E+000
 AREA2  0.000000000000000E+000
 U1x  =  0.000000000000000E+000
 U1y  =  0.000000000000000E+000
 Phi1 =  0.000000000000000E+000
 U2x  =  0.000000000000000E+000
 U2y  =  0.000000000000000E+000
 Phi2 =  0.000000000000000E+000
 U3x  =  0.000000000000000E+000
 U3y  =  0.000000000000000E+000
 Phi3 =  0.000000000000000E+000
 U4x  =  0.000000000000000E+000
 U4y  =  0.000000000000000E+000
 Phi4 =  0.000000000000000E+000
 ***********************************
 CURRENT ELEMENT NUMBER::::          42
 NUMBER OF NODES:::           4
 DOFs:::           2
 TOTAL DOF OF ELEMENT:::           12
 ************************************
          42
 AREA1  0.000000000000000E+000
 AREA2  0.000000000000000E+000
 U1x  =  0.000000000000000E+000
 U1y  =  0.000000000000000E+000
 Phi1 =  0.000000000000000E+000
 U2x  =  0.000000000000000E+000
 U2y  =  0.000000000000000E+000
 Phi2 =  0.000000000000000E+000
 U3x  =  0.000000000000000E+000
 U3y  =  0.000000000000000E+000
 Phi3 =  0.000000000000000E+000
 U4x  =  0.000000000000000E+000
 U4y  =  0.000000000000000E+000
 Phi4 =  0.000000000000000E+000
 ***********************************
 CURRENT ELEMENT NUMBER::::          43
 NUMBER OF NODES:::           4
 DOFs:::           2
 TOTAL DOF OF ELEMENT:::           12
 ************************************
          43
 AREA1  0.000000000000000E+000
 AREA2  0.000000000000000E+000
 U1x  =  0.000000000000000E+000
 U1y  =  0.000000000000000E+000
 Phi1 =  0.000000000000000E+000
 U2x  =  0.000000000000000E+000
 U2y  =  0.000000000000000E+000
 Phi2 =  0.000000000000000E+000
 U3x  =  0.000000000000000E+000
 U3y  =  0.000000000000000E+000
 Phi3 =  0.000000000000000E+000
 U4x  =  0.000000000000000E+000
 U4y  =  0.000000000000000E+000
 Phi4 =  0.000000000000000E+000
 ***********************************
 CURRENT ELEMENT NUMBER::::          44
 NUMBER OF NODES:::           4
 DOFs:::           2
 TOTAL DOF OF ELEMENT:::           12
 ************************************
          44
 AREA1  0.000000000000000E+000
 AREA2  0.000000000000000E+000
 U1x  =  0.000000000000000E+000
[...]
          39
 AREA1  -4.68731221368981     
 AREA2  1.278976924368180E-013
 U1x  =  1.964999999999999E-004
 U1y  = -8.119285714285863E-005
 Phi1 =   14.5301701520978     
 U2x  =  2.292499999999999E-004
 U2y  = -1.105125000000016E-004
 Phi2 =   14.5301701520978     
 U3x  =  2.608249999999999E-004
 U3y  = -1.774876079871304E-005
 Phi3 =   263.622034517591     
 U4x  =  2.235642857142856E-004
 U4y  =  1.157088205842990E-005
 Phi4 =   263.622034517591     
 ***********************************
 CURRENT ELEMENT NUMBER::::          40
 NUMBER OF NODES:::           4
 DOFs:::           2
 TOTAL DOF OF ELEMENT:::           12
 ************************************
          40
 AREA1  -4.68731221368980     
 AREA2  9.947598300641403E-014
 U1x  =  2.292499999999999E-004
 U1y  = -1.105125000000016E-004
 Phi1 =   14.5301701520978     
 U2x  =  2.620000000000000E-004
 U2y  = -1.443428571428587E-004
 Phi2 =   14.5301701520978     
 U3x  =  2.980857142857143E-004
 U3y  = -5.157911794157030E-005
 Phi3 =   263.622034517592     
 U4x  =  2.608249999999999E-004
 U4y  = -1.774876079871304E-005
 Phi4 =   263.622034517591     
 ***********************************
 CURRENT ELEMENT NUMBER::::          41
 NUMBER OF NODES:::           4
 DOFs:::           2
 TOTAL DOF OF ELEMENT:::           12
 ************************************
          41
 AREA1  -2.32827687583559     
 AREA2  2.131628207280301E-014
 U1x  = -4.384743180953422E-037
 U1y  =  9.276373920128809E-005
 Phi1 =   263.622034517592     
 U2x  =  3.726071428571433E-005
 U2y  =  9.050838205843091E-005
 Phi2 =   263.622034517592     
 U3x  =  4.177142857142859E-005
 U3y  =  1.804975435525787E-004
 Phi3 =   510.897627614073     
 U4x  = -1.435949008635522E-037
 U4y  =  1.827529006954359E-004
 Phi4 =   510.897627614074     
 ***********************************
 CURRENT ELEMENT NUMBER::::          42
 NUMBER OF NODES:::           4
 DOFs:::           2
 TOTAL DOF OF ELEMENT:::           12
 ************************************
          42
 AREA1  -2.32827687583563     
 AREA2  5.684341886080801E-014
 U1x  =  3.726071428571433E-005
 U1y  =  9.050838205843091E-005
 Phi1 =   263.622034517592     
 U2x  =  7.452142857142850E-005
 U2y  =  8.374231062985911E-005
 Phi2 =   263.622034517591     
 U3x  =  8.354285714285713E-005
 U3y  =  1.737314721240072E-004
 Phi3 =   510.897627614073     
 U4x  =  4.177142857142859E-005
 U4y  =  1.804975435525787E-004
 Phi4 =   510.897627614073     
 ***********************************
 CURRENT ELEMENT NUMBER::::          43
 NUMBER OF NODES:::           4
 DOFs:::           2
 TOTAL DOF OF ELEMENT:::           12
 ************************************
          43
 AREA1  -2.32827687583562     
 AREA2  8.526512829121202E-014
 U1x  =  7.452142857142850E-005
 U1y  =  8.374231062985911E-005
 Phi1 =   263.622034517591     
 U2x  =  1.117821428571427E-004
 U2y  =  7.246552491557332E-005
 Phi2 =   263.622034517591     
 U3x  =  1.253142857142856E-004
 U3y  =  1.624546864097212E-004
 Phi3 =   510.897627614073     
 U4x  =  8.354285714285713E-005
 U4y  =  1.737314721240072E-004
 Phi4 =   510.897627614073     
 ***********************************
 CURRENT ELEMENT NUMBER::::          44
 NUMBER OF NODES:::           4
 DOFs:::           2
 TOTAL DOF OF ELEMENT:::           12
 ************************************
          44
 AREA1  -2.32827687583558     
 AREA2  4.973799150320701E-014
 U1x  =  1.117821428571427E-004
 U1y  =  7.246552491557332E-005
 Phi1 =   263.622034517591     
 U2x  =  1.490428571428570E-004
 U2y  =  5.667802491557301E-005
 Phi2 =   263.622034517591     
 U3x  =  1.670857142857142E-004
 U3y  =  1.466671864097209E-004
 Phi3 =   510.897627614073     
 U4x  =  1.253142857142856E-004
 U4y  =  1.624546864097212E-004
 Phi4 =   510.897627614073     
 ***********************************
 CURRENT ELEMENT NUMBER::::          45
 NUMBER OF NODES:::           4
 DOFs:::           2
 TOTAL DOF OF ELEMENT:::           12
 ************************************
          45
 AREA1  -2.32827687583558     
 AREA2  5.684341886080801E-014
 U1x  =  1.490428571428570E-004
 U1y  =  5.667802491557301E-005
 Phi1 =   263.622034517591     
 U2x  =  1.863035714285713E-004
 U2y  =  3.637981062985859E-005
 Phi2 =   263.622034517591     
 U3x  =  2.088571428571427E-004
 U3y  =  1.263689721240065E-004
 Phi3 =   510.897627614073     
 U4x  =  1.670857142857142E-004
 U4y  =  1.466671864097209E-004
 Phi4 =   510.897627614073     
 ***********************************
 CURRENT ELEMENT NUMBER::::          46
 NUMBER OF NODES:::           4
 DOFs:::           2
 TOTAL DOF OF ELEMENT:::           12
 ************************************
          46
 AREA1  -2.32827687583558     
 AREA2  7.105427357601002E-014
 U1x  =  1.863035714285713E-004
 U1y  =  3.637981062985859E-005
 Phi1 =   263.622034517591     
 U2x  =  2.235642857142856E-004
 U2y  =  1.157088205842990E-005
 Phi2 =   263.622034517591     
 U3x  =  2.506285714285713E-004
 U3y  =  1.015600435525779E-004
 Phi3 =   510.897627614073     
 U4x  =  2.088571428571427E-004
 U4y  =  1.263689721240065E-004
 Phi4 =   510.897627614073     
 ***********************************
 CURRENT ELEMENT NUMBER::::          47
 NUMBER OF NODES:::           4
 DOFs:::           2
 TOTAL DOF OF ELEMENT:::           12
 ************************************
          47
 AREA1  -2.32827687583559     
 AREA2  5.684341886080801E-014
 U1x  =  2.235642857142856E-004
 U1y  =  1.157088205842990E-005
 Phi1 =   263.622034517591     
 U2x  =  2.608249999999999E-004
 U2y  = -1.774876079871304E-005
 Phi2 =   263.622034517591     
 U3x  =  2.923999999999999E-004
 U3y  =  7.224040069543488E-005
 Phi3 =   510.897627614073     
 U4x  =  2.506285714285713E-004
 U4y  =  1.015600435525779E-004
 Phi4 =   510.897627614073     
 ***********************************
 CURRENT ELEMENT NUMBER::::          48
 NUMBER OF NODES:::           4
 DOFs:::           2
 TOTAL DOF OF ELEMENT:::           12
 ************************************
          48
 AREA1  -2.32827687583556     
 AREA2  7.815970093361102E-014
 U1x  =  2.608249999999999E-004
 U1y  = -1.774876079871304E-005
 Phi1 =   263.622034517591     
 U2x  =  2.980857142857143E-004
 U2y  = -5.157911794157030E-005
 Phi2 =   263.622034517592     
 U3x  =  3.341714285714285E-004
 U3y  =  3.841004355257776E-005
 Phi3 =   510.897627614073     
 U4x  =  2.923999999999999E-004
 U4y  =  7.224040069543488E-005
 Phi4 =   510.897627614073     
 ***********************************
 CURRENT ELEMENT NUMBER::::          49
 NUMBER OF NODES:::           4
 DOFs:::           2
 TOTAL DOF OF ELEMENT:::           12
 ************************************
          49
 AREA1  3.075846201871713E-002
 AREA2  6.394884621840902E-014
 U1x  = -1.435949008635522E-037
 U1y  =  1.827529006954359E-004
 Phi1 =   510.897627614074     
 U2x  =  4.177142857142859E-005
 U2y  =  1.804975435525787E-004
 Phi2 =   510.897627614073     
 U3x  =  4.628214285714291E-005
 U3y  =  2.677121273395860E-004
 Phi3 =   756.356949441543     
 U4x  =  1.512845163682307E-037
 U4y  =  2.699674844824432E-004
 Phi4 =   756.356949441542     
 ***********************************
 CURRENT ELEMENT NUMBER::::          50
 NUMBER OF NODES:::           4
 DOFs:::           2
 TOTAL DOF OF ELEMENT:::           12
 ************************************
          50
 AREA1  3.075846201868160E-002
 AREA2  7.105427357601002E-014
 U1x  =  4.177142857142859E-005
 U1y  =  1.804975435525787E-004
 Phi1 =   510.897627614073     
 U2x  =  8.354285714285713E-005
 U2y  =  1.737314721240072E-004
 Phi2 =   510.897627614073     
 U3x  =  9.256428571428577E-005
 U3y  =  2.609460559110147E-004
 Phi3 =   756.356949441542     
 U4x  =  4.628214285714291E-005
 U4y  =  2.677121273395860E-004
 Phi4 =   756.356949441543     
 ***********************************
 CURRENT ELEMENT NUMBER::::          51
 NUMBER OF NODES:::           4
 DOFs:::           2
 TOTAL DOF OF ELEMENT:::           12
 ************************************
          51
 AREA1  3.075846201865318E-002
 AREA2  8.526512829121202E-014
 U1x  =  8.354285714285713E-005
 U1y  =  1.737314721240072E-004
 Phi1 =   510.897627614073     
 U2x  =  1.253142857142856E-004
 U2y  =  1.624546864097212E-004
 Phi2 =   510.897627614073     
 U3x  =  1.388464285714286E-004
 U3y  =  2.496692701967286E-004
 Phi3 =   756.356949441542     
 U4x  =  9.256428571428577E-005
 U4y  =  2.609460559110147E-004
 Phi4 =   756.356949441542     
 ***********************************
 CURRENT ELEMENT NUMBER::::          52
 NUMBER OF NODES:::           4
 DOFs:::           2
 TOTAL DOF OF ELEMENT:::           12
 ************************************
          52
 AREA1  3.075846201864607E-002
 AREA2  5.684341886080801E-014
 U1x  =  1.253142857142856E-004
 U1y  =  1.624546864097212E-004
 Phi1 =   510.897627614073     
 U2x  =  1.670857142857142E-004
 U2y  =  1.466671864097209E-004
 Phi2 =   510.897627614073     
 U3x  =  1.851285714285714E-004
 U3y  =  2.338817701967284E-004
 Phi3 =   756.356949441542     
 U4x  =  1.388464285714286E-004
 U4y  =  2.496692701967286E-004
 Phi4 =   756.356949441542     
 ***********************************
 CURRENT ELEMENT NUMBER::::          53
 NUMBER OF NODES:::           4
 DOFs:::           2
 TOTAL DOF OF ELEMENT:::           12
 ************************************
          53
 AREA1  3.075846201864607E-002
 AREA2  5.684341886080801E-014
 U1x  =  1.670857142857142E-004
 U1y  =  1.466671864097209E-004
 Phi1 =   510.897627614073     
 U2x  =  2.088571428571427E-004
 U2y  =  1.263689721240065E-004
 Phi2 =   510.897627614073     
 U3x  =  2.314107142857142E-004
 U3y  =  2.135835559110139E-004
 Phi3 =   756.356949441543     
 U4x  =  1.851285714285714E-004
 U4y  =  2.338817701967284E-004
 Phi4 =   756.356949441542     
 ***********************************
 CURRENT ELEMENT NUMBER::::          54
 NUMBER OF NODES:::           4
 DOFs:::           2
 TOTAL DOF OF ELEMENT:::           12
 ************************************
          54
 AREA1  3.075846201867449E-002
 AREA2  7.105427357601002E-014
 U1x  =  2.088571428571427E-004
 U1y  =  1.263689721240065E-004
 Phi1 =   510.897627614073     
 U2x  =  2.506285714285713E-004
 U2y  =  1.015600435525779E-004
 Phi2 =   510.897627614073     
 U3x  =  2.776928571428570E-004
 U3y  =  1.887746273395853E-004
 Phi3 =   756.356949441542     
 U4x  =  2.314107142857142E-004
 U4y  =  2.135835559110139E-004
 Phi4 =   756.356949441543     
 ***********************************
 CURRENT ELEMENT NUMBER::::          55
 NUMBER OF NODES:::           4
 DOFs:::           2
 TOTAL DOF OF ELEMENT:::           12
 ************************************
          55
 AREA1  3.075846201866028E-002
 AREA2  5.684341886080801E-014
 U1x  =  2.506285714285713E-004
 U1y  =  1.015600435525779E-004
 Phi1 =   510.897627614073     
 U2x  =  2.923999999999999E-004
 U2y  =  7.224040069543488E-005
 Phi2 =   510.897627614073     
 U3x  =  3.239749999999998E-004
 U3y  =  1.594549844824422E-004
 Phi3 =   756.356949441543     
 U4x  =  2.776928571428570E-004
 U4y  =  1.887746273395853E-004
 Phi4 =   756.356949441542     
 ***********************************
 CURRENT ELEMENT NUMBER::::          56
 NUMBER OF NODES:::           4
 DOFs:::           2
 TOTAL DOF OF ELEMENT:::           12
 ************************************
          56
 AREA1  3.075846201871002E-002
 AREA2  2.131628207280301E-014
 U1x  =  2.923999999999999E-004
 U1y  =  7.224040069543488E-005
 Phi1 =   510.897627614073     
 U2x  =  3.341714285714285E-004
 U2y  =  3.841004355257776E-005
 Phi2 =   510.897627614073     
 U3x  =  3.702571428571428E-004
 U3y  =  1.256246273395849E-004
 Phi3 =   756.356949441543     
 U4x  =  3.239749999999998E-004
 U4y  =  1.594549844824422E-004
 Phi4 =   756.356949441543     
 ***********************************
 CURRENT ELEMENT NUMBER::::          57
 NUMBER OF NODES:::           4
 DOFs:::           2
 TOTAL DOF OF ELEMENT:::           12
 ************************************
          57
 AREA1   2.38979379987295     
 AREA2  4.973799150320701E-014
 U1x  =  1.512845163682307E-037
 U1y  =  2.699674844824432E-004
 Phi1 =   756.356949441542     
 U2x  =  4.628214285714291E-005
 U2y  =  2.677121273395860E-004
 Phi2 =   756.356949441543     
 U3x  =  5.079285714285718E-005
 U3y  =  3.521521334194528E-004
 Phi3 =   1000.00000000000     
 U4x  =  1.552972624228619E-037
 U4y  =  3.544074905623099E-004
 Phi4 =   1000.00000000000     
 ***********************************
 CURRENT ELEMENT NUMBER::::          58
 NUMBER OF NODES:::           4
 DOFs:::           2
 TOTAL DOF OF ELEMENT:::           12
 ************************************
          58
 AREA1   2.38979379987292     
 AREA2  2.842170943040401E-014
 U1x  =  4.628214285714291E-005
 U1y  =  2.677121273395860E-004
 Phi1 =   756.356949441543     
 U2x  =  9.256428571428577E-005
 U2y  =  2.609460559110147E-004
 Phi2 =   756.356949441542     
 U3x  =  1.015857142857144E-004
 U3y  =  3.453860619908814E-004
 Phi3 =   1000.00000000000     
 U4x  =  5.079285714285718E-005
 U4y  =  3.521521334194528E-004
 Phi4 =   1000.00000000000     
 ***********************************
 CURRENT ELEMENT NUMBER::::          59
 NUMBER OF NODES:::           4
 DOFs:::           2
 TOTAL DOF OF ELEMENT:::           12
 ************************************
          59
 AREA1   2.38979379987291     
 AREA2  2.842170943040401E-014
 U1x  =  9.256428571428577E-005
 U1y  =  2.609460559110147E-004
 Phi1 =   756.356949441542     
 U2x  =  1.388464285714286E-004
 U2y  =  2.496692701967286E-004
 Phi2 =   756.356949441542     
 U3x  =  1.523785714285716E-004
 U3y  =  3.341092762765956E-004
 Phi3 =   1000.00000000000     
 U4x  =  1.015857142857144E-004
 U4y  =  3.453860619908814E-004
 Phi4 =   1000.00000000000     
 ***********************************
 CURRENT ELEMENT NUMBER::::          60
 NUMBER OF NODES:::           4
 DOFs:::           2
 TOTAL DOF OF ELEMENT:::           12
 ************************************
          60
 AREA1   2.38979379987290     
 AREA2  4.263256414560601E-014
 U1x  =  1.388464285714286E-004
 U1y  =  2.496692701967286E-004
 Phi1 =   756.356949441542     
 U2x  =  1.851285714285714E-004
 U2y  =  2.338817701967284E-004
 Phi2 =   756.356949441542     
 U3x  =  2.031714285714288E-004
 U3y  =  3.183217762765952E-004
 Phi3 =   1000.00000000000     
 U4x  =  1.523785714285716E-004
 U4y  =  3.341092762765956E-004
 Phi4 =   1000.00000000000     
 ***********************************
 CURRENT ELEMENT NUMBER::::          61
 NUMBER OF NODES:::           4
 DOFs:::           2
 TOTAL DOF OF ELEMENT:::           12
 ************************************
          61
 AREA1   2.38979379987287     
 AREA2  7.105427357601002E-015
 U1x  =  1.851285714285714E-004
 U1y  =  2.338817701967284E-004
 Phi1 =   756.356949441542     
 U2x  =  2.314107142857142E-004
 U2y  =  2.135835559110139E-004
 Phi2 =   756.356949441543     
 U3x  =  2.539642857142858E-004
 U3y  =  2.980235619908807E-004
 Phi3 =   1000.00000000000     
 U4x  =  2.031714285714288E-004
 U4y  =  3.183217762765952E-004
 Phi4 =   1000.00000000000     
 ***********************************
 CURRENT ELEMENT NUMBER::::          62
 NUMBER OF NODES:::           4
 DOFs:::           2
 TOTAL DOF OF ELEMENT:::           12
 ************************************
          62
 AREA1   2.38979379987289     
 AREA2  1.421085471520200E-014
 U1x  =  2.314107142857142E-004
 U1y  =  2.135835559110139E-004
 Phi1 =   756.356949441543     
 U2x  =  2.776928571428570E-004
 U2y  =  1.887746273395853E-004
 Phi2 =   756.356949441542     
 U3x  =  3.047571428571430E-004
 U3y  =  2.732146334194522E-004
 Phi3 =   1000.00000000000     
 U4x  =  2.539642857142858E-004
 U4y  =  2.980235619908807E-004
 Phi4 =   1000.00000000000     
 ***********************************
 CURRENT ELEMENT NUMBER::::          63
 NUMBER OF NODES:::           4
 DOFs:::           2
 TOTAL DOF OF ELEMENT:::           12
 ************************************
          63
 AREA1   2.38979379987290     
 AREA2  2.842170943040401E-014
 U1x  =  2.776928571428570E-004
 U1y  =  1.887746273395853E-004
 Phi1 =   756.356949441542     
 U2x  =  3.239749999999998E-004
 U2y  =  1.594549844824422E-004
 Phi2 =   756.356949441543     
 U3x  =  3.555500000000002E-004
 U3y  =  2.438949905623090E-004
 Phi3 =   1000.00000000000     
 U4x  =  3.047571428571430E-004
 U4y  =  2.732146334194522E-004
 Phi4 =   1000.00000000000     
 ***********************************
 CURRENT ELEMENT NUMBER::::          64
 NUMBER OF NODES:::           4
 DOFs:::           2
 TOTAL DOF OF ELEMENT:::           12
 ************************************
          64
 AREA1   2.38979379987290     
 AREA2  2.131628207280301E-014
 U1x  =  3.239749999999998E-004
 U1y  =  1.594549844824422E-004
 Phi1 =   756.356949441543     
 U2x  =  3.702571428571428E-004
 U2y  =  1.256246273395849E-004
 Phi2 =   756.356949441543     
 U3x  =  4.063428571428571E-004
 U3y  =  2.100646334194517E-004
 Phi3 =   1000.00000000000     
 U4x  =  3.555500000000002E-004
 U4y  =  2.438949905623090E-004
 Phi4 =   1000.00000000000     

               CONVERGENCE CHECKS FOR EQUILIBRIUM ITERATION     1


 AVERAGE FORCE                      0.202       TIME AVG. FORCE       0.202    
 LARGEST RESIDUAL FORCE            -1.554E-14   AT NODE         66   DOF  2
 LARGEST INCREMENT OF DISP.        -5.431E-04   AT NODE          9   DOF  2
 LARGEST CORRECTION TO DISP.       -5.431E-04   AT NODE          9   DOF  2
          THE FORCE     EQUILIBRIUM RESPONSE WAS LINEAR IN THIS INCREMENT

 AVERAGE CHARGE                     3.569E-06   TIME AVG. CHARGE      3.569E-06
 LARGEST RESIDUAL CHARGE           -1.101E-20   AT NODE         58   DOF  9
 LARGEST INCREMENT OF E. POT.      -1.000E+03   AT NODE          1   DOF  9
 LARGEST CORRECTION TO E. POT.     -1.000E+03   AT NODE          1   DOF  9
          THE CHARGE    EQUILIBRIUM RESPONSE WAS LINEAR IN THIS INCREMENT

 ITERATION SUMMARY FOR THE INCREMENT:   1 TOTAL ITERATIONS, OF WHICH
   0 ARE SEVERE DISCONTINUITY ITERATIONS AND  1 ARE EQUILIBRIUM ITERATIONS.

 TIME INCREMENT COMPLETED   1.00    ,  FRACTION OF STEP COMPLETED   1.00    
 STEP TIME COMPLETED        1.00    ,  TOTAL TIME COMPLETED         1.00    


          THE ANALYSIS HAS BEEN COMPLETED



     ANALYSIS SUMMARY:
     TOTAL OF          1  INCREMENTS
                       0  CUTBACKS IN AUTOMATIC INCREMENTATION
                       1  ITERATIONS INCLUDING CONTACT ITERATIONS IF PRESENT
                       1  PASSES THROUGH THE EQUATION SOLVER OF WHICH 
                       1  INVOLVE MATRIX DECOMPOSITION, INCLUDING
                       0  DECOMPOSITION(S) OF THE MASS MATRIX
                       1  REORDERING OF EQUATIONS TO MINIMIZE WAVEFRONT
                       0  ADDITIONAL RESIDUAL EVALUATIONS FOR LINE SEARCHES
                       0  ADDITIONAL OPERATOR EVALUATIONS FOR LINE SEARCHES
                       1  WARNING MESSAGES DURING USER INPUT PROCESSING
                       0  WARNING MESSAGES DURING ANALYSIS
                       0  ANALYSIS WARNINGS ARE NUMERICAL PROBLEM MESSAGES
                       0  ANALYSIS WARNINGS ARE NEGATIVE EIGENVALUE MESSAGES
                       0  ERROR MESSAGES



     JOB TIME SUMMARY
       USER TIME (SEC)      =  0.10000    
       SYSTEM TIME (SEC)    =  0.10000    
       TOTAL CPU TIME (SEC) =  0.20000    
       WALLCLOCK TIME (SEC) =          1
