1

   Abaqus 3DEXPERIENCE R2018x                                  Date 19-May-2020   Time 08:43:46
   For use by Supplied by Team-SolidSQUAD under license from Dassault Systemes or its subsidiary.

 Piezoelectric strip under Shear                                                 
                                                                                 
 STEP    1     INCREMENT     1     STEP TIME    0.00    


                        S T E P       1     S T A T I C   A N A L Y S I S


                                                                                          

     AUTOMATIC TIME CONTROL WITH -
          A SUGGESTED INITIAL TIME INCREMENT OF                 1.00    
          AND A TOTAL TIME PERIOD OF                            1.00    
          THE MINIMUM TIME INCREMENT ALLOWED IS                1.000E-05
          THE MAXIMUM TIME INCREMENT ALLOWED IS                 1.00    

     LINEAR EQUATION SOLVER TYPE         DIRECT SPARSE

 CONVERGENCE TOLERANCE PARAMETERS FOR FORCE    
     CRITERION FOR RESIDUAL FORCE     FOR A NONLINEAR PROBLEM          5.000E-03
     CRITERION FOR DISP.    CORRECTION IN A NONLINEAR PROBLEM          1.000E-02
     INITIAL VALUE OF TIME AVERAGE FORCE                               1.000E-02
     AVERAGE FORCE     IS TIME AVERAGE FORCE    
     ALTERNATE CRIT. FOR RESIDUAL FORCE     FOR A NONLINEAR PROBLEM    2.000E-02
     CRITERION FOR ZERO FORCE     RELATIVE TO TIME AVRG. FORCE         1.000E-05
     CRITERION FOR RESIDUAL FORCE     WHEN THERE IS ZERO FLUX          1.000E-05
     CRITERION FOR DISP.    CORRECTION WHEN THERE IS ZERO FLUX         1.000E-03
     CRITERION FOR RESIDUAL FORCE     FOR A LINEAR INCREMENT           1.000E-08
     FIELD CONVERSION RATIO                                             1.00    
     CRITERION FOR ZERO FORCE     REL. TO TIME AVRG. MAX. FORCE        1.000E-05
     CRITERION FOR ZERO DISP.    RELATIVE TO CHARACTERISTIC LENGTH     1.000E-08

 CONVERGENCE TOLERANCE PARAMETERS FOR CHARGE   
     CRITERION FOR RESIDUAL CHARGE    FOR A NONLINEAR PROBLEM          5.000E-03
     CRITERION FOR E. POT.  CORRECTION IN A NONLINEAR PROBLEM          1.000E-02
     INITIAL VALUE OF TIME AVERAGE CHARGE                              1.000E-02
     AVERAGE CHARGE    IS TIME AVERAGE CHARGE   
     ALTERNATE CRIT. FOR RESIDUAL CHARGE    FOR A NONLINEAR PROBLEM    2.000E-02
     CRITERION FOR ZERO CHARGE    RELATIVE TO TIME AVRG. CHARGE        1.000E-05
     CRITERION FOR RESIDUAL CHARGE    WHEN THERE IS ZERO FLUX          1.000E-05
     CRITERION FOR E. POT.  CORRECTION WHEN THERE IS ZERO FLUX         1.000E-03
     CRITERION FOR RESIDUAL CHARGE    FOR A LINEAR INCREMENT           1.000E-08
     FIELD CONVERSION RATIO                                             1.00    
     CRITERION FOR ZERO CHARGE    REL. TO TIME AVRG. MAX. CHARGE       1.000E-05

     VOLUMETRIC STRAIN COMPATIBILITY TOLERANCE FOR HYBRID SOLIDS       1.000E-05
     AXIAL STRAIN COMPATIBILITY TOLERANCE FOR HYBRID BEAMS             1.000E-05
     TRANS. SHEAR STRAIN COMPATIBILITY TOLERANCE FOR HYBRID BEAMS      1.000E-05
     SOFT CONTACT CONSTRAINT COMPATIBILITY TOLERANCE FOR P>P0          5.000E-03
     SOFT CONTACT CONSTRAINT COMPATIBILITY TOLERANCE FOR P=0.0         0.100    
     CONTACT FORCE ERROR TOLERANCE FOR CONVERT SDI=YES                 1.00    
     DISPLACEMENT COMPATIBILITY TOLERANCE FOR DCOUP ELEMENTS           1.000E-05
     ROTATION COMPATIBILITY TOLERANCE FOR DCOUP ELEMENTS               1.000E-05

 EQUILIBRIUM WILL BE CHECKED FOR SEVERE DISCONTINUITY ITERATIONS

 TIME INCREMENTATION CONTROL PARAMETERS:
     FIRST EQUILIBRIUM ITERATION FOR CONSECUTIVE DIVERGENCE CHECK              4
     EQUILIBRIUM ITERATION AT WHICH LOG. CONVERGENCE RATE CHECK BEGINS         8
     EQUILIBRIUM ITERATION AFTER WHICH ALTERNATE RESIDUAL IS USED              9
     MAXIMUM EQUILIBRIUM ITERATIONS ALLOWED                                   16
     EQUILIBRIUM ITERATION COUNT FOR CUT-BACK IN NEXT INCREMENT               10
     MAXIMUM EQUILIB. ITERS IN TWO INCREMENTS FOR TIME INCREMENT INCREASE      4
     MAXIMUM ITERATIONS FOR SEVERE DISCONTINUITIES                            50
     MAXIMUM ATTEMPTS ALLOWED IN AN INCREMENT                                  5
     MAXIMUM DISCON. ITERS IN TWO INCREMENTS FOR TIME INCREMENT INCREASE      50
     MAXIMUM CONTACT AUGMENTATIONS FOR *SURFACE BEHAVIOR,AUGMENTED LAGRANGE   50
     CUT-BACK FACTOR AFTER DIVERGENCE                                 0.2500    
     CUT-BACK FACTOR FOR TOO SLOW CONVERGENCE                         0.5000    
     CUT-BACK FACTOR AFTER TOO MANY EQUILIBRIUM ITERATIONS            0.7500    
     CUT-BACK FACTOR AFTER TOO MANY SEVERE DISCONTINUITY ITERATIONS   0.2500    
     CUT-BACK FACTOR AFTER PROBLEMS IN ELEMENT ASSEMBLY               0.2500    
     INCREASE FACTOR AFTER TWO INCREMENTS THAT CONVERGE QUICKLY        1.500    
     MAX. TIME INCREMENT INCREASE FACTOR ALLOWED                       1.500    
     MAX. TIME INCREMENT INCREASE FACTOR ALLOWED (DYNAMICS)            1.250    
     MAX. TIME INCREMENT INCREASE FACTOR ALLOWED (DIFFUSION)           2.000    
     MINIMUM TIME INCREMENT RATIO FOR EXTRAPOLATION TO OCCUR          0.1000    
     MAX. RATIO OF TIME INCREMENT TO STABILITY LIMIT                   1.000    
     FRACTION OF STABILITY LIMIT FOR NEW TIME INCREMENT               0.9500    
     TIME INCREMENT INCREASE FACTOR BEFORE A TIME POINT                1.000    
     GLOBAL STABILIZATION CONTROL IS NOT USED

          PRINT OF INCREMENT NUMBER, TIME, ETC., EVERY    1  INCREMENTS

     THE MAXIMUM NUMBER OF INCREMENTS IN THIS STEP IS                     100

     LINEAR EXTRAPOLATION WILL BE USED

     DETAILS REGARDING ACTUAL SOLUTION WAVEFRONT REQUESTED

     DETAILED OUTPUT OF DIAGNOSTICS TO DATABASE REQUESTED

     PRINT OF INCREMENT NUMBER, TIME, ETC., TO THE MESSAGE FILE EVERY     1  INCREMENTS

     COLLECTING MODEL CONSTRAINT INFORMATION FOR OVERCONSTRAINT CHECKS

     COLLECTING STEP CONSTRAINT INFORMATION FOR OVERCONSTRAINT CHECKS
 ***********************************
 CURRENT ELEMENT NUMBER::::           1
 NUMBER OF NODES:::           4
 DOFs:::           2
 TOTAL DOF OF ELEMENT:::           12
 ************************************
           1
 AREA1  0.000000000000000E+000
 AREA2  0.000000000000000E+000
 U1x  =  0.000000000000000E+000
 U1y  =  0.000000000000000E+000
 Phi1 =  0.000000000000000E+000
 U2x  =  0.000000000000000E+000
 U2y  =  0.000000000000000E+000
 Phi2 =  0.000000000000000E+000
 U3x  =  0.000000000000000E+000
 U3y  =  0.000000000000000E+000
 Phi3 =  0.000000000000000E+000
 U4x  =  0.000000000000000E+000
 U4y  =  0.000000000000000E+000
 Phi4 =  0.000000000000000E+000
 ***********************************
 CURRENT ELEMENT NUMBER::::           2
 NUMBER OF NODES:::           4
 DOFs:::           2
 TOTAL DOF OF ELEMENT:::           12
 ************************************
           2
 AREA1  0.000000000000000E+000
 AREA2  0.000000000000000E+000
 U1x  =  0.000000000000000E+000
 U1y  =  0.000000000000000E+000
 Phi1 =  0.000000000000000E+000
 U2x  =  0.000000000000000E+000
 U2y  =  0.000000000000000E+000
 Phi2 =  0.000000000000000E+000
 U3x  =  0.000000000000000E+000
 U3y  =  0.000000000000000E+000
 Phi3 =  0.000000000000000E+000
 U4x  =  0.000000000000000E+000
 U4y  =  0.000000000000000E+000
 Phi4 =  0.000000000000000E+000
 ***********************************
 CURRENT ELEMENT NUMBER::::           3
 NUMBER OF NODES:::           4
 DOFs:::           2
 TOTAL DOF OF ELEMENT:::           12
 ************************************
           3
 AREA1  0.000000000000000E+000
 AREA2  0.000000000000000E+000
 U1x  =  0.000000000000000E+000
 U1y  =  0.000000000000000E+000
 Phi1 =  0.000000000000000E+000
 U2x  =  0.000000000000000E+000
 U2y  =  0.000000000000000E+000
 Phi2 =  0.000000000000000E+000
 U3x  =  0.000000000000000E+000
 U3y  =  0.000000000000000E+000
 Phi3 =  0.000000000000000E+000
 U4x  =  0.000000000000000E+000
 U4y  =  0.000000000000000E+000
 Phi4 =  0.000000000000000E+000
 ***********************************
 CURRENT ELEMENT NUMBER::::           4
 NUMBER OF NODES:::           4
 DOFs:::           2
 TOTAL DOF OF ELEMENT:::           12
 ************************************
           4
 AREA1  0.000000000000000E+000
 AREA2  0.000000000000000E+000
 U1x  =  0.000000000000000E+000
 U1y  =  0.000000000000000E+000
 Phi1 =  0.000000000000000E+000
 U2x  =  0.000000000000000E+000
 U2y  =  0.000000000000000E+000
 Phi2 =  0.000000000000000E+000
 U3x  =  0.000000000000000E+000
 U3y  =  0.000000000000000E+000
 Phi3 =  0.000000000000000E+000
 U4x  =  0.000000000000000E+000
 U4y  =  0.000000000000000E+000
 Phi4 =  0.000000000000000E+000
 ***********************************
 CURRENT ELEMENT NUMBER::::           5
 NUMBER OF NODES:::           4
 DOFs:::           2
 TOTAL DOF OF ELEMENT:::           12
 ************************************
           5
 AREA1  0.000000000000000E+000
 AREA2  0.000000000000000E+000
 U1x  =  0.000000000000000E+000
 U1y  =  0.000000000000000E+000
 Phi1 =  0.000000000000000E+000
 U2x  =  0.000000000000000E+000
 U2y  =  0.000000000000000E+000
 Phi2 =  0.000000000000000E+000
 U3x  =  0.000000000000000E+000
 U3y  =  0.000000000000000E+000
 Phi3 =  0.000000000000000E+000
 U4x  =  0.000000000000000E+000
 U4y  =  0.000000000000000E+000
 Phi4 =  0.000000000000000E+000
 ***********************************
 CURRENT ELEMENT NUMBER::::           6
 NUMBER OF NODES:::           4
 DOFs:::           2
 TOTAL DOF OF ELEMENT:::           12
 ************************************
           6
 AREA1  0.000000000000000E+000
 AREA2  0.000000000000000E+000
 U1x  =  0.000000000000000E+000
 U1y  =  0.000000000000000E+000
 Phi1 =  0.000000000000000E+000
 U2x  =  0.000000000000000E+000
 U2y  =  0.000000000000000E+000
 Phi2 =  0.000000000000000E+000
 U3x  =  0.000000000000000E+000
 U3y  =  0.000000000000000E+000
 Phi3 =  0.000000000000000E+000
 U4x  =  0.000000000000000E+000
 U4y  =  0.000000000000000E+000
 Phi4 =  0.000000000000000E+000
 ***********************************
 CURRENT ELEMENT NUMBER::::           7
 NUMBER OF NODES:::           4
 DOFs:::           2
 TOTAL DOF OF ELEMENT:::           12
 ************************************
           7
 AREA1  0.000000000000000E+000
 AREA2  0.000000000000000E+000
 U1x  =  0.000000000000000E+000
 U1y  =  0.000000000000000E+000
 Phi1 =  0.000000000000000E+000
 U2x  =  0.000000000000000E+000
 U2y  =  0.000000000000000E+000
 Phi2 =  0.000000000000000E+000
 U3x  =  0.000000000000000E+000
 U3y  =  0.000000000000000E+000
 Phi3 =  0.000000000000000E+000
 U4x  =  0.000000000000000E+000
 U4y  =  0.000000000000000E+000
 Phi4 =  0.000000000000000E+000
 ***********************************
 CURRENT ELEMENT NUMBER::::           8
 NUMBER OF NODES:::           4
 DOFs:::           2
 TOTAL DOF OF ELEMENT:::           12
 ************************************
           8
 AREA1  0.000000000000000E+000
 AREA2  0.000000000000000E+000
 U1x  =  0.000000000000000E+000
 U1y  =  0.000000000000000E+000
 Phi1 =  0.000000000000000E+000
 U2x  =  0.000000000000000E+000
 U2y  =  0.000000000000000E+000
 Phi2 =  0.000000000000000E+000
 U3x  =  0.000000000000000E+000
 U3y  =  0.000000000000000E+000
 Phi3 =  0.000000000000000E+000
 U4x  =  0.000000000000000E+000
 U4y  =  0.000000000000000E+000
 Phi4 =  0.000000000000000E+000
 ***********************************
 CURRENT ELEMENT NUMBER::::           9
 NUMBER OF NODES:::           4
 DOFs:::           2
 TOTAL DOF OF ELEMENT:::           12
 ************************************
           9
 AREA1  0.000000000000000E+000
 AREA2  0.000000000000000E+000
 U1x  =  0.000000000000000E+000
 U1y  =  0.000000000000000E+000
 Phi1 =  0.000000000000000E+000
 U2x  =  0.000000000000000E+000
 U2y  =  0.000000000000000E+000
 Phi2 =  0.000000000000000E+000
 U3x  =  0.000000000000000E+000
 U3y  =  0.000000000000000E+000
 Phi3 =  0.000000000000000E+000
 U4x  =  0.000000000000000E+000
 U4y  =  0.000000000000000E+000
 Phi4 =  0.000000000000000E+000
 ***********************************
 CURRENT ELEMENT NUMBER::::          10
 NUMBER OF NODES:::           4
 DOFs:::           2
 TOTAL DOF OF ELEMENT:::           12
 ************************************
          10
 AREA1  0.000000000000000E+000
 AREA2  0.000000000000000E+000
 U1x  =  0.000000000000000E+000
 U1y  =  0.000000000000000E+000
 Phi1 =  0.000000000000000E+000
 U2x  =  0.000000000000000E+000
 U2y  =  0.000000000000000E+000
 Phi2 =  0.000000000000000E+000
 U3x  =  0.000000000000000E+000
 U3y  =  0.000000000000000E+000
 Phi3 =  0.000000000000000E+000
 U4x  =  0.000000000000000E+000
 U4y  =  0.000000000000000E+000
 Phi4 =  0.000000000000000E+000
 ***********************************
 CURRENT ELEMENT NUMBER::::          11
 NUMBER OF NODES:::           4
 DOFs:::           2
 TOTAL DOF OF ELEMENT:::           12
 ************************************
          11
 AREA1  0.000000000000000E+000
 AREA2  0.000000000000000E+000
 U1x  =  0.000000000000000E+000
 U1y  =  0.000000000000000E+000
 Phi1 =  0.000000000000000E+000
 U2x  =  0.000000000000000E+000
 U2y  =  0.000000000000000E+000
 Phi2 =  0.000000000000000E+000
 U3x  =  0.000000000000000E+000
 U3y  =  0.000000000000000E+000
 Phi3 =  0.000000000000000E+000
 U4x  =  0.000000000000000E+000
 U4y  =  0.000000000000000E+000
 Phi4 =  0.000000000000000E+000
 ***********************************
 CURRENT ELEMENT NUMBER::::          12
 NUMBER OF NODES:::           4
 DOFs:::           2
 TOTAL DOF OF ELEMENT:::           12
 ************************************
          12
 AREA1  0.000000000000000E+000
 AREA2  0.000000000000000E+000
 U1x  =  0.000000000000000E+000
 U1y  =  0.000000000000000E+000
 Phi1 =  0.000000000000000E+000
 U2x  =  0.000000000000000E+000
 U2y  =  0.000000000000000E+000
 Phi2 =  0.000000000000000E+000
 U3x  =  0.000000000000000E+000
 U3y  =  0.000000000000000E+000
 Phi3 =  0.000000000000000E+000
 U4x  =  0.000000000000000E+000
 U4y  =  0.000000000000000E+000
 Phi4 =  0.000000000000000E+000
 ***********************************
 CURRENT ELEMENT NUMBER::::          13
 NUMBER OF NODES:::           4
 DOFs:::           2
 TOTAL DOF OF ELEMENT:::           12
 ************************************
          13
 AREA1  0.000000000000000E+000
 AREA2  0.000000000000000E+000
 U1x  =  0.000000000000000E+000
 U1y  =  0.000000000000000E+000
 Phi1 =  0.000000000000000E+000
 U2x  =  0.000000000000000E+000
 U2y  =  0.000000000000000E+000
 Phi2 =  0.000000000000000E+000
 U3x  =  0.000000000000000E+000
 U3y  =  0.000000000000000E+000
 Phi3 =  0.000000000000000E+000
 U4x  =  0.000000000000000E+000
 U4y  =  0.000000000000000E+000
 Phi4 =  0.000000000000000E+000
 ***********************************
 CURRENT ELEMENT NUMBER::::          14
 NUMBER OF NODES:::           4
 DOFs:::           2
 TOTAL DOF OF ELEMENT:::           12
 ************************************
          14
 AREA1  0.000000000000000E+000
 AREA2  0.000000000000000E+000
 U1x  =  0.000000000000000E+000
 U1y  =  0.000000000000000E+000
 Phi1 =  0.000000000000000E+000
 U2x  =  0.000000000000000E+000
 U2y  =  0.000000000000000E+000
 Phi2 =  0.000000000000000E+000
 U3x  =  0.000000000000000E+000
 U3y  =  0.000000000000000E+000
 Phi3 =  0.000000000000000E+000
 U4x  =  0.000000000000000E+000
 U4y  =  0.000000000000000E+000
 Phi4 =  0.000000000000000E+000
 ***********************************
 CURRENT ELEMENT NUMBER::::          15
 NUMBER OF NODES:::           4
 DOFs:::           2
 TOTAL DOF OF ELEMENT:::           12
 ************************************
          15
 AREA1  0.000000000000000E+000
 AREA2  0.000000000000000E+000
 U1x  =  0.000000000000000E+000
 U1y  =  0.000000000000000E+000
 Phi1 =  0.000000000000000E+000
 U2x  =  0.000000000000000E+000
 U2y  =  0.000000000000000E+000
 Phi2 =  0.000000000000000E+000
 U3x  =  0.000000000000000E+000
 U3y  =  0.000000000000000E+000
 Phi3 =  0.000000000000000E+000
 U4x  =  0.000000000000000E+000
 U4y  =  0.000000000000000E+000
 Phi4 =  0.000000000000000E+000
 ***********************************
 CURRENT ELEMENT NUMBER::::          16
 NUMBER OF NODES:::           4
 DOFs:::           2
 TOTAL DOF OF ELEMENT:::           12
 ************************************
          16
 AREA1  0.000000000000000E+000
 AREA2  0.000000000000000E+000
 U1x  =  0.000000000000000E+000
 U1y  =  0.000000000000000E+000
 Phi1 =  0.000000000000000E+000
 U2x  =  0.000000000000000E+000
 U2y  =  0.000000000000000E+000
 Phi2 =  0.000000000000000E+000
 U3x  =  0.000000000000000E+000
 U3y  =  0.000000000000000E+000
 Phi3 =  0.000000000000000E+000
 U4x  =  0.000000000000000E+000
 U4y  =  0.000000000000000E+000
 Phi4 =  0.000000000000000E+000
 ***********************************
 CURRENT ELEMENT NUMBER::::          17
 NUMBER OF NODES:::           4
 DOFs:::           2
 TOTAL DOF OF ELEMENT:::           12
 ************************************
          17
 AREA1  0.000000000000000E+000
 AREA2  0.000000000000000E+000
 U1x  =  0.000000000000000E+000
 U1y  =  0.000000000000000E+000
 Phi1 =  0.000000000000000E+000
 U2x  =  0.000000000000000E+000
 U2y  =  0.000000000000000E+000
 Phi2 =  0.000000000000000E+000
 U3x  =  0.000000000000000E+000
 U3y  =  0.000000000000000E+000
 Phi3 =  0.000000000000000E+000
 U4x  =  0.000000000000000E+000
 U4y  =  0.000000000000000E+000
 Phi4 =  0.000000000000000E+000
 ***********************************
 CURRENT ELEMENT NUMBER::::          18
 NUMBER OF NODES:::           4
 DOFs:::           2
 TOTAL DOF OF ELEMENT:::           12
 ************************************
          18
 AREA1  0.000000000000000E+000
 AREA2  0.000000000000000E+000
 U1x  =  0.000000000000000E+000
 U1y  =  0.000000000000000E+000
 Phi1 =  0.000000000000000E+000
 U2x  =  0.000000000000000E+000
 U2y  =  0.000000000000000E+000
 Phi2 =  0.000000000000000E+000
 U3x  =  0.000000000000000E+000
 U3y  =  0.000000000000000E+000
 Phi3 =  0.000000000000000E+000
 U4x  =  0.000000000000000E+000
 U4y  =  0.000000000000000E+000
 Phi4 =  0.000000000000000E+000
 ***********************************
 CURRENT ELEMENT NUMBER::::          19
 NUMBER OF NODES:::           4
 DOFs:::           2
 TOTAL DOF OF ELEMENT:::           12
 ************************************
          19
 AREA1  0.000000000000000E+000
 AREA2  0.000000000000000E+000
 U1x  =  0.000000000000000E+000
 U1y  =  0.000000000000000E+000
 Phi1 =  0.000000000000000E+000
 U2x  =  0.000000000000000E+000
 U2y  =  0.000000000000000E+000
 Phi2 =  0.000000000000000E+000
 U3x  =  0.000000000000000E+000
 U3y  =  0.000000000000000E+000
 Phi3 =  0.000000000000000E+000
 U4x  =  0.000000000000000E+000
 U4y  =  0.000000000000000E+000
 Phi4 =  0.000000000000000E+000
 ***********************************
 CURRENT ELEMENT NUMBER::::          20
 NUMBER OF NODES:::           4
 DOFs:::           2
 TOTAL DOF OF ELEMENT:::           12
 ************************************
          20
 AREA1  0.000000000000000E+000
 AREA2  0.000000000000000E+000
 U1x  =  0.000000000000000E+000
 U1y  =  0.000000000000000E+000
 Phi1 =  0.000000000000000E+000
 U2x  =  0.000000000000000E+000
 U2y  =  0.000000000000000E+000
 Phi2 =  0.000000000000000E+000
 U3x  =  0.000000000000000E+000
 U3y  =  0.000000000000000E+000
 Phi3 =  0.000000000000000E+000
 U4x  =  0.000000000000000E+000
 U4y  =  0.000000000000000E+000
 Phi4 =  0.000000000000000E+000
 ***********************************
 CURRENT ELEMENT NUMBER::::          21
 NUMBER OF NODES:::           4
 DOFs:::           2
 TOTAL DOF OF ELEMENT:::           12
 ************************************
          21
 AREA1  0.000000000000000E+000
 AREA2  0.000000000000000E+000
 U1x  =  0.000000000000000E+000
 U1y  =  0.000000000000000E+000
 Phi1 =  0.000000000000000E+000
 U2x  =  0.000000000000000E+000
 U2y  =  0.000000000000000E+000
 Phi2 =  0.000000000000000E+000
 U3x  =  0.000000000000000E+000
 U3y  =  0.000000000000000E+000
 Phi3 =  0.000000000000000E+000
 U4x  =  0.000000000000000E+000
 U4y  =  0.000000000000000E+000
 Phi4 =  0.000000000000000E+000
 ***********************************
 CURRENT ELEMENT NUMBER::::          22
 NUMBER OF NODES:::           4
 DOFs:::           2
 TOTAL DOF OF ELEMENT:::           12
 ************************************
          22
 AREA1  0.000000000000000E+000
 AREA2  0.000000000000000E+000
 U1x  =  0.000000000000000E+000
 U1y  =  0.000000000000000E+000
 Phi1 =  0.000000000000000E+000
 U2x  =  0.000000000000000E+000
 U2y  =  0.000000000000000E+000
 Phi2 =  0.000000000000000E+000
 U3x  =  0.000000000000000E+000
 U3y  =  0.000000000000000E+000
 Phi3 =  0.000000000000000E+000
 U4x  =  0.000000000000000E+000
 U4y  =  0.000000000000000E+000
 Phi4 =  0.000000000000000E+000
 ***********************************
 CURRENT ELEMENT NUMBER::::          23
 NUMBER OF NODES:::           4
 DOFs:::           2
 TOTAL DOF OF ELEMENT:::           12
 ************************************
          23
 AREA1  0.000000000000000E+000
 AREA2  0.000000000000000E+000
 U1x  =  0.000000000000000E+000
 U1y  =  0.000000000000000E+000
 Phi1 =  0.000000000000000E+000
 U2x  =  0.000000000000000E+000
 U2y  =  0.000000000000000E+000
 Phi2 =  0.000000000000000E+000
 U3x  =  0.000000000000000E+000
 U3y  =  0.000000000000000E+000
 Phi3 =  0.000000000000000E+000
 U4x  =  0.000000000000000E+000
 U4y  =  0.000000000000000E+000
 Phi4 =  0.000000000000000E+000
 ***********************************
 CURRENT ELEMENT NUMBER::::          24
 NUMBER OF NODES:::           4
 DOFs:::           2
 TOTAL DOF OF ELEMENT:::           12
 ************************************
          24
 AREA1  0.000000000000000E+000
 AREA2  0.000000000000000E+000
 U1x  =  0.000000000000000E+000
 U1y  =  0.000000000000000E+000
 Phi1 =  0.000000000000000E+000
 U2x  =  0.000000000000000E+000
 U2y  =  0.000000000000000E+000
 Phi2 =  0.000000000000000E+000
 U3x  =  0.000000000000000E+000
 U3y  =  0.000000000000000E+000
 Phi3 =  0.000000000000000E+000
 U4x  =  0.000000000000000E+000
 U4y  =  0.000000000000000E+000
 Phi4 =  0.000000000000000E+000
 ***********************************
 CURRENT ELEMENT NUMBER::::          25
 NUMBER OF NODES:::           4
 DOFs:::           2
 TOTAL DOF OF ELEMENT:::           12
 ************************************
          25
 AREA1  0.000000000000000E+000
 AREA2  0.000000000000000E+000
 U1x  =  0.000000000000000E+000
 U1y  =  0.000000000000000E+000
 Phi1 =  0.000000000000000E+000
 U2x  =  0.000000000000000E+000
 U2y  =  0.000000000000000E+000
 Phi2 =  0.000000000000000E+000
 U3x  =  0.000000000000000E+000
 U3y  =  0.000000000000000E+000
 Phi3 =  0.000000000000000E+000
 U4x  =  0.000000000000000E+000
 U4y  =  0.000000000000000E+000
 Phi4 =  0.000000000000000E+000
 ***********************************
 CURRENT ELEMENT NUMBER::::          26
 NUMBER OF NODES:::           4
 DOFs:::           2
 TOTAL DOF OF ELEMENT:::           12
 ************************************
          26
 AREA1  0.000000000000000E+000
 AREA2  0.000000000000000E+000
 U1x  =  0.000000000000000E+000
 U1y  =  0.000000000000000E+000
 Phi1 =  0.000000000000000E+000
 U2x  =  0.000000000000000E+000
 U2y  =  0.000000000000000E+000
 Phi2 =  0.000000000000000E+000
 U3x  =  0.000000000000000E+000
 U3y  =  0.000000000000000E+000
 Phi3 =  0.000000000000000E+000
 U4x  =  0.000000000000000E+000
 U4y  =  0.000000000000000E+000
 Phi4 =  0.000000000000000E+000
 ***********************************
 CURRENT ELEMENT NUMBER::::          27
 NUMBER OF NODES:::           4
 DOFs:::           2
 TOTAL DOF OF ELEMENT:::           12
 ************************************
          27
 AREA1  0.000000000000000E+000
 AREA2  0.000000000000000E+000
 U1x  =  0.000000000000000E+000
 U1y  =  0.000000000000000E+000
 Phi1 =  0.000000000000000E+000
 U2x  =  0.000000000000000E+000
 U2y  =  0.000000000000000E+000
 Phi2 =  0.000000000000000E+000
 U3x  =  0.000000000000000E+000
 U3y  =  0.000000000000000E+000
 Phi3 =  0.000000000000000E+000
 U4x  =  0.000000000000000E+000
 U4y  =  0.000000000000000E+000
 Phi4 =  0.000000000000000E+000
 ***********************************
 CURRENT ELEMENT NUMBER::::          28
 NUMBER OF NODES:::           4
 DOFs:::           2
 TOTAL DOF OF ELEMENT:::           12
 ************************************
          28
 AREA1  0.000000000000000E+000
 AREA2  0.000000000000000E+000
 U1x  =  0.000000000000000E+000
 U1y  =  0.000000000000000E+000
 Phi1 =  0.000000000000000E+000
 U2x  =  0.000000000000000E+000
 U2y  =  0.000000000000000E+000
 Phi2 =  0.000000000000000E+000
 U3x  =  0.000000000000000E+000
 U3y  =  0.000000000000000E+000
 Phi3 =  0.000000000000000E+000
 U4x  =  0.000000000000000E+000
 U4y  =  0.000000000000000E+000
 Phi4 =  0.000000000000000E+000
 ***********************************
 CURRENT ELEMENT NUMBER::::          29
 NUMBER OF NODES:::           4
 DOFs:::           2
 TOTAL DOF OF ELEMENT:::           12
 ************************************
          29
 AREA1  0.000000000000000E+000
 AREA2  0.000000000000000E+000
 U1x  =  0.000000000000000E+000
 U1y  =  0.000000000000000E+000
 Phi1 =  0.000000000000000E+000
 U2x  =  0.000000000000000E+000
 U2y  =  0.000000000000000E+000
 Phi2 =  0.000000000000000E+000
 U3x  =  0.000000000000000E+000
 U3y  =  0.000000000000000E+000
 Phi3 =  0.000000000000000E+000
 U4x  =  0.000000000000000E+000
 U4y  =  0.000000000000000E+000
 Phi4 =  0.000000000000000E+000
 ***********************************
 CURRENT ELEMENT NUMBER::::          30
 NUMBER OF NODES:::           4
 DOFs:::           2
 TOTAL DOF OF ELEMENT:::           12
 ************************************
          30
 AREA1  0.000000000000000E+000
 AREA2  0.000000000000000E+000
 U1x  =  0.000000000000000E+000
 U1y  =  0.000000000000000E+000
 Phi1 =  0.000000000000000E+000
 U2x  =  0.000000000000000E+000
 U2y  =  0.000000000000000E+000
 Phi2 =  0.000000000000000E+000
 U3x  =  0.000000000000000E+000
 U3y  =  0.000000000000000E+000
 Phi3 =  0.000000000000000E+000
 U4x  =  0.000000000000000E+000
 U4y  =  0.000000000000000E+000
 Phi4 =  0.000000000000000E+000
 ***********************************
 CURRENT ELEMENT NUMBER::::          31
 NUMBER OF NODES:::           4
 DOFs:::           2
 TOTAL DOF OF ELEMENT:::           12
 ************************************
          31
 AREA1  0.000000000000000E+000
 AREA2  0.000000000000000E+000
 U1x  =  0.000000000000000E+000
 U1y  =  0.000000000000000E+000
 Phi1 =  0.000000000000000E+000
 U2x  =  0.000000000000000E+000
 U2y  =  0.000000000000000E+000
 Phi2 =  0.000000000000000E+000
 U3x  =  0.000000000000000E+000
 U3y  =  0.000000000000000E+000
 Phi3 =  0.000000000000000E+000
 U4x  =  0.000000000000000E+000
 U4y  =  0.000000000000000E+000
 Phi4 =  0.000000000000000E+000
 ***********************************
 CURRENT ELEMENT NUMBER::::          32
 NUMBER OF NODES:::           4
 DOFs:::           2
 TOTAL DOF OF ELEMENT:::           12
 ************************************
          32
 AREA1  0.000000000000000E+000
 AREA2  0.000000000000000E+000
 U1x  =  0.000000000000000E+000
 U1y  =  0.000000000000000E+000
 Phi1 =  0.000000000000000E+000
 U2x  =  0.000000000000000E+000
 U2y  =  0.000000000000000E+000
 Phi2 =  0.000000000000000E+000
 U3x  =  0.000000000000000E+000
 U3y  =  0.000000000000000E+000
 Phi3 =  0.000000000000000E+000
 U4x  =  0.000000000000000E+000
 U4y  =  0.000000000000000E+000
 Phi4 =  0.000000000000000E+000
 ***********************************
 CURRENT ELEMENT NUMBER::::          33
 NUMBER OF NODES:::           4
 DOFs:::           2
 TOTAL DOF OF ELEMENT:::           12
 ************************************
          33
 AREA1  0.000000000000000E+000
 AREA2  0.000000000000000E+000
 U1x  =  0.000000000000000E+000
 U1y  =  0.000000000000000E+000
 Phi1 =  0.000000000000000E+000
 U2x  =  0.000000000000000E+000
 U2y  =  0.000000000000000E+000
 Phi2 =  0.000000000000000E+000
 U3x  =  0.000000000000000E+000
 U3y  =  0.000000000000000E+000
 Phi3 =  0.000000000000000E+000
 U4x  =  0.000000000000000E+000
 U4y  =  0.000000000000000E+000
 Phi4 =  0.000000000000000E+000
 ***********************************
 CURRENT ELEMENT NUMBER::::          34
 NUMBER OF NODES:::           4
 DOFs:::           2
 TOTAL DOF OF ELEMENT:::           12
 ************************************
          34
 AREA1  0.000000000000000E+000
 AREA2  0.000000000000000E+000
 U1x  =  0.000000000000000E+000
 U1y  =  0.000000000000000E+000
 Phi1 =  0.000000000000000E+000
 U2x  =  0.000000000000000E+000
 U2y  =  0.000000000000000E+000
 Phi2 =  0.000000000000000E+000
 U3x  =  0.000000000000000E+000
 U3y  =  0.000000000000000E+000
 Phi3 =  0.000000000000000E+000
 U4x  =  0.000000000000000E+000
 U4y  =  0.000000000000000E+000
 Phi4 =  0.000000000000000E+000
 ***********************************
 CURRENT ELEMENT NUMBER::::          35
 NUMBER OF NODES:::           4
 DOFs:::           2
 TOTAL DOF OF ELEMENT:::           12
 ************************************
          35
 AREA1  0.000000000000000E+000
 AREA2  0.000000000000000E+000
 U1x  =  0.000000000000000E+000
 U1y  =  0.000000000000000E+000
 Phi1 =  0.000000000000000E+000
 U2x  =  0.000000000000000E+000
 U2y  =  0.000000000000000E+000
 Phi2 =  0.000000000000000E+000
 U3x  =  0.000000000000000E+000
 U3y  =  0.000000000000000E+000
 Phi3 =  0.000000000000000E+000
 U4x  =  0.000000000000000E+000
 U4y  =  0.000000000000000E+000
 Phi4 =  0.000000000000000E+000
 ***********************************
 CURRENT ELEMENT NUMBER::::          36
 NUMBER OF NODES:::           4
 DOFs:::           2
 TOTAL DOF OF ELEMENT:::           12
 ************************************
          36
 AREA1  0.000000000000000E+000
 AREA2  0.000000000000000E+000
 U1x  =  0.000000000000000E+000
 U1y  =  0.000000000000000E+000
 Phi1 =  0.000000000000000E+000
 U2x  =  0.000000000000000E+000
 U2y  =  0.000000000000000E+000
 Phi2 =  0.000000000000000E+000
 U3x  =  0.000000000000000E+000
 U3y  =  0.000000000000000E+000
 Phi3 =  0.000000000000000E+000
 U4x  =  0.000000000000000E+000
 U4y  =  0.000000000000000E+000
 Phi4 =  0.000000000000000E+000
 ***********************************
 CURRENT ELEMENT NUMBER::::          37
 NUMBER OF NODES:::           4
 DOFs:::           2
 TOTAL DOF OF ELEMENT:::           12
 ************************************
          37
 AREA1  0.000000000000000E+000
 AREA2  0.000000000000000E+000
 U1x  =  0.000000000000000E+000
 U1y  =  0.000000000000000E+000
 Phi1 =  0.000000000000000E+000
 U2x  =  0.000000000000000E+000
 U2y  =  0.000000000000000E+000
 Phi2 =  0.000000000000000E+000
 U3x  =  0.000000000000000E+000
 U3y  =  0.000000000000000E+000
 Phi3 =  0.000000000000000E+000
 U4x  =  0.000000000000000E+000
 U4y  =  0.000000000000000E+000
 Phi4 =  0.000000000000000E+000
 ***********************************
 CURRENT ELEMENT NUMBER::::          38
 NUMBER OF NODES:::           4
 DOFs:::           2
 TOTAL DOF OF ELEMENT:::           12
 ************************************
          38
 AREA1  0.000000000000000E+000
 AREA2  0.000000000000000E+000
 U1x  =  0.000000000000000E+000
 U1y  =  0.000000000000000E+000
 Phi1 =  0.000000000000000E+000
 U2x  =  0.000000000000000E+000
 U2y  =  0.000000000000000E+000
 Phi2 =  0.000000000000000E+000
 U3x  =  0.000000000000000E+000
 U3y  =  0.000000000000000E+000
 Phi3 =  0.000000000000000E+000
 U4x  =  0.000000000000000E+000
 U4y  =  0.000000000000000E+000
 Phi4 =  0.000000000000000E+000
 ***********************************
 CURRENT ELEMENT NUMBER::::          39
 NUMBER OF NODES:::           4
 DOFs:::           2
 TOTAL DOF OF ELEMENT:::           12
 ************************************
          39
 AREA1  0.000000000000000E+000
 AREA2  0.000000000000000E+000
 U1x  =  0.000000000000000E+000
 U1y  =  0.000000000000000E+000
 Phi1 =  0.000000000000000E+000
 U2x  =  0.000000000000000E+000
 U2y  =  0.000000000000000E+000
 Phi2 =  0.000000000000000E+000
 U3x  =  0.000000000000000E+000
 U3y  =  0.000000000000000E+000
 Phi3 =  0.000000000000000E+000
 U4x  =  0.000000000000000E+000
 U4y  =  0.000000000000000E+000
 Phi4 =  0.000000000000000E+000
 ***********************************
 CURRENT ELEMENT NUMBER::::          40
 NUMBER OF NODES:::           4
 DOFs:::           2
 TOTAL DOF OF ELEMENT:::           12
 ************************************
          40
 AREA1  0.000000000000000E+000
 AREA2  0.000000000000000E+000
 U1x  =  0.000000000000000E+000
 U1y  =  0.000000000000000E+000
 Phi1 =  0.000000000000000E+000
 U2x  =  0.000000000000000E+000
 U2y  =  0.000000000000000E+000
 Phi2 =  0.000000000000000E+000
 U3x  =  0.000000000000000E+000
 U3y  =  0.000000000000000E+000
 Phi3 =  0.000000000000000E+000
 U4x  =  0.000000000000000E+000
 U4y  =  0.000000000000000E+000
 Phi4 =  0.000000000000000E+000
 ***********************************
 CURRENT ELEMENT NUMBER::::          41
 NUMBER OF NODES:::           4
 DOFs:::           2
 TOTAL DOF OF ELEMENT:::           12
 ************************************
          41
 AREA1  0.000000000000000E+000
 AREA2  0.000000000000000E+000
 U1x  =  0.000000000000000E+000
 U1y  =  0.000000000000000E+000
 Phi1 =  0.000000000000000E+000
 U2x  =  0.000000000000000E+000
 U2y  =  0.000000000000000E+000
 Phi2 =  0.000000000000000E+000
 U3x  =  0.000000000000000E+000
 U3y  =  0.000000000000000E+000
 Phi3 =  0.000000000000000E+000
 U4x  =  0.000000000000000E+000
 U4y  =  0.000000000000000E+000
 Phi4 =  0.000000000000000E+000
 ***********************************
 CURRENT ELEMENT NUMBER::::          42
 NUMBER OF NODES:::           4
 DOFs:::           2
 TOTAL DOF OF ELEMENT:::           12
 ************************************
          42
 AREA1  0.000000000000000E+000
 AREA2  0.000000000000000E+000
 U1x  =  0.000000000000000E+000
 U1y  =  0.000000000000000E+000
 Phi1 =  0.000000000000000E+000
 U2x  =  0.000000000000000E+000
 U2y  =  0.000000000000000E+000
 Phi2 =  0.000000000000000E+000
 U3x  =  0.000000000000000E+000
 U3y  =  0.000000000000000E+000
 Phi3 =  0.000000000000000E+000
 U4x  =  0.000000000000000E+000
 U4y  =  0.000000000000000E+000
 Phi4 =  0.000000000000000E+000
 ***********************************
 CURRENT ELEMENT NUMBER::::          43
 NUMBER OF NODES:::           4
 DOFs:::           2
 TOTAL DOF OF ELEMENT:::           12
 ************************************
          43
 AREA1  0.000000000000000E+000
 AREA2  0.000000000000000E+000
 U1x  =  0.000000000000000E+000
 U1y  =  0.000000000000000E+000
 Phi1 =  0.000000000000000E+000
 U2x  =  0.000000000000000E+000
 U2y  =  0.000000000000000E+000
 Phi2 =  0.000000000000000E+000
 U3x  =  0.000000000000000E+000
 U3y  =  0.000000000000000E+000
 Phi3 =  0.000000000000000E+000
 U4x  =  0.000000000000000E+000
 U4y  =  0.000000000000000E+000
 Phi4 =  0.000000000000000E+000
 ***********************************
 CURRENT ELEMENT NUMBER::::          44
 NUMBER OF NODES:::           4
 DOFs:::           2
 TOTAL DOF OF ELEMENT:::           12
 ************************************
          44
 AREA1  0.000000000000000E+000
 AREA2  0.000000000000000E+000
 U1x  =  0.000000000000000E+000
 U1y  =  0.000000000000000E+000
 Phi1 =  0.000000000000000E+000
 U2x  =  0.000000000000000E+000
 U2y  =  0.000000000000000E+000
 Phi2 =  0.000000000000000E+000
 U3x  =  0.000000000000000E+000
 U3y  =  0.000000000000000E+000
 Phi3 =  0.000000000000000E+000
 U4x  =  0.000000000000000E+000
 U4y  =  0.000000000000000E+000
 Phi4 =  0.000000000000000E+000
 ***********************************
 CURRENT ELEMENT NUMBER::::          45
 NUMBER OF NODES:::           4
 DOFs:::           2
 TOTAL DOF OF ELEMENT:::           12
 ************************************
          45
 AREA1  0.000000000000000E+000
 AREA2  0.000000000000000E+000
 U1x  =  0.000000000000000E+000
 U1y  =  0.000000000000000E+000
 Phi1 =  0.000000000000000E+000
 U2x  =  0.000000000000000E+000
 U2y  =  0.000000000000000E+000
 Phi2 =  0.000000000000000E+000
 U3x  =  0.000000000000000E+000
 U3y  =  0.000000000000000E+000
 Phi3 =  0.000000000000000E+000
 U4x  =  0.000000000000000E+000
 U4y  =  0.000000000000000E+000
 Phi4 =  0.000000000000000E+000
 ***********************************
 CURRENT ELEMENT NUMBER::::          46
 NUMBER OF NODES:::           4
 DOFs:::           2
 TOTAL DOF OF ELEMENT:::           12
 ************************************
          46
 AREA1  0.000000000000000E+000
 AREA2  0.000000000000000E+000
 U1x  =  0.000000000000000E+000
 U1y  =  0.000000000000000E+000
 Phi1 =  0.000000000000000E+000
 U2x  =  0.000000000000000E+000
 U2y  =  0.000000000000000E+000
 Phi2 =  0.000000000000000E+000
 U3x  =  0.000000000000000E+000
 U3y  =  0.000000000000000E+000
 Phi3 =  0.000000000000000E+000
 U4x  =  0.000000000000000E+000
 U4y  =  0.000000000000000E+000
 Phi4 =  0.000000000000000E+000
 ***********************************
 CURRENT ELEMENT NUMBER::::          47
 NUMBER OF NODES:::           4
 DOFs:::           2
 TOTAL DOF OF ELEMENT:::           12
 ************************************
          47
 AREA1  0.000000000000000E+000
 AREA2  0.000000000000000E+000
 U1x  =  0.000000000000000E+000
 U1y  =  0.000000000000000E+000
 Phi1 =  0.000000000000000E+000
 U2x  =  0.000000000000000E+000
 U2y  =  0.000000000000000E+000
 Phi2 =  0.000000000000000E+000
 U3x  =  0.000000000000000E+000
 U3y  =  0.000000000000000E+000
 Phi3 =  0.000000000000000E+000
 U4x  =  0.000000000000000E+000
 U4y  =  0.000000000000000E+000
 Phi4 =  0.000000000000000E+000
 ***********************************
 CURRENT ELEMENT NUMBER::::          48
 NUMBER OF NODES:::           4
 DOFs:::           2
 TOTAL DOF OF ELEMENT:::           12
 ************************************
          48
 AREA1  0.000000000000000E+000
 AREA2  0.000000000000000E+000
 U1x  =  0.000000000000000E+000
 U1y  =  0.000000000000000E+000
 Phi1 =  0.000000000000000E+000
 U2x  =  0.000000000000000E+000
 U2y  =  0.000000000000000E+000
 Phi2 =  0.000000000000000E+000
 U3x  =  0.000000000000000E+000
 U3y  =  0.000000000000000E+000
 Phi3 =  0.000000000000000E+000
 U4x  =  0.000000000000000E+000
 U4y  =  0.000000000000000E+000
 Phi4 =  0.000000000000000E+000
 ***********************************
 CURRENT ELEMENT NUMBER::::          49
 NUMBER OF NODES:::           4
 DOFs:::           2
 TOTAL DOF OF ELEMENT:::           12
 ************************************
          49
 AREA1  0.000000000000000E+000
 AREA2  0.000000000000000E+000
 U1x  =  0.000000000000000E+000
 U1y  =  0.000000000000000E+000
 Phi1 =  0.000000000000000E+000
 U2x  =  0.000000000000000E+000
 U2y  =  0.000000000000000E+000
 Phi2 =  0.000000000000000E+000
 U3x  =  0.000000000000000E+000
 U3y  =  0.000000000000000E+000
 Phi3 =  0.000000000000000E+000
 U4x  =  0.000000000000000E+000
 U4y  =  0.000000000000000E+000
 Phi4 =  0.000000000000000E+000
 ***********************************
 CURRENT ELEMENT NUMBER::::          50
 NUMBER OF NODES:::           4
 DOFs:::           2
 TOTAL DOF OF ELEMENT:::           12
 ************************************
          50
 AREA1  0.000000000000000E+000
 AREA2  0.000000000000000E+000
 U1x  =  0.000000000000000E+000
 U1y  =  0.000000000000000E+000
 Phi1 =  0.000000000000000E+000
 U2x  =  0.000000000000000E+000
 U2y  =  0.000000000000000E+000
 Phi2 =  0.000000000000000E+000
 U3x  =  0.000000000000000E+000
 U3y  =  0.000000000000000E+000
 Phi3 =  0.000000000000000E+000
 U4x  =  0.000000000000000E+000
 U4y  =  0.000000000000000E+000
 Phi4 =  0.000000000000000E+000
 ***********************************
 CURRENT ELEMENT NUMBER::::          51
 NUMBER OF NODES:::           4
 DOFs:::           2
 TOTAL DOF OF ELEMENT:::           12
 ************************************
          51
 AREA1  0.000000000000000E+000
 AREA2  0.000000000000000E+000
 U1x  =  0.000000000000000E+000
 U1y  =  0.000000000000000E+000
 Phi1 =  0.000000000000000E+000
 U2x  =  0.000000000000000E+000
 U2y  =  0.000000000000000E+000
 Phi2 =  0.000000000000000E+000
 U3x  =  0.000000000000000E+000
 U3y  =  0.000000000000000E+000
 Phi3 =  0.000000000000000E+000
 U4x  =  0.000000000000000E+000
 U4y  =  0.000000000000000E+000
 Phi4 =  0.000000000000000E+000
 ***********************************
 CURRENT ELEMENT NUMBER::::          52
 NUMBER OF NODES:::           4
 DOFs:::           2
 TOTAL DOF OF ELEMENT:::           12
 ************************************
          52
 AREA1  0.000000000000000E+000
 AREA2  0.000000000000000E+000
 U1x  =  0.000000000000000E+000
 U1y  =  0.000000000000000E+000
 Phi1 =  0.000000000000000E+000
 U2x  =  0.000000000000000E+000
 U2y  =  0.000000000000000E+000
 Phi2 =  0.000000000000000E+000
 U3x  =  0.000000000000000E+000
 U3y  =  0.000000000000000E+000
 Phi3 =  0.000000000000000E+000
 U4x  =  0.000000000000000E+000
 U4y  =  0.000000000000000E+000
 Phi4 =  0.000000000000000E+000
 ***********************************
 CURRENT ELEMENT NUMBER::::          53
 NUMBER OF NODES:::           4
 DOFs:::           2
 TOTAL DOF OF ELEMENT:::           12
 ************************************
          53
 AREA1  0.000000000000000E+000
 AREA2  0.000000000000000E+000
 U1x  =  0.000000000000000E+000
 U1y  =  0.000000000000000E+000
 Phi1 =  0.000000000000000E+000
 U2x  =  0.000000000000000E+000
 U2y  =  0.000000000000000E+000
 Phi2 =  0.000000000000000E+000
 U3x  =  0.000000000000000E+000
 U3y  =  0.000000000000000E+000
 Phi3 =  0.000000000000000E+000
 U4x  =  0.000000000000000E+000
 U4y  =  0.000000000000000E+000
 Phi4 =  0.000000000000000E+000
 ***********************************
 CURRENT ELEMENT NUMBER::::          54
 NUMBER OF NODES:::           4
 DOFs:::           2
 TOTAL DOF OF ELEMENT:::           12
 ************************************
          54
 AREA1  0.000000000000000E+000
 AREA2  0.000000000000000E+000
 U1x  =  0.000000000000000E+000
 U1y  =  0.000000000000000E+000
 Phi1 =  0.000000000000000E+000
 U2x  =  0.000000000000000E+000
 U2y  =  0.000000000000000E+000
 Phi2 =  0.000000000000000E+000
 U3x  =  0.000000000000000E+000
 U3y  =  0.000000000000000E+000
 Phi3 =  0.000000000000000E+000
 U4x  =  0.000000000000000E+000
 U4y  =  0.000000000000000E+000
 Phi4 =  0.000000000000000E+000
 ***********************************
 CURRENT ELEMENT NUMBER::::          55
 NUMBER OF NODES:::           4
 DOFs:::           2
 TOTAL DOF OF ELEMENT:::           12
 ************************************
          55
 AREA1  0.000000000000000E+000
 AREA2  0.000000000000000E+000
 U1x  =  0.000000000000000E+000
 U1y  =  0.000000000000000E+000
 Phi1 =  0.000000000000000E+000
 U2x  =  0.000000000000000E+000
 U2y  =  0.000000000000000E+000
 Phi2 =  0.000000000000000E+000
 U3x  =  0.000000000000000E+000
 U3y  =  0.000000000000000E+000
 Phi3 =  0.000000000000000E+000
 U4x  =  0.000000000000000E+000
 U4y  =  0.000000000000000E+000
 Phi4 =  0.000000000000000E+000
 ***********************************
 CURRENT ELEMENT NUMBER::::          56
 NUMBER OF NODES:::           4
 DOFs:::           2
 TOTAL DOF OF ELEMENT:::           12
 ************************************
          56
 AREA1  0.000000000000000E+000
 AREA2  0.000000000000000E+000
 U1x  =  0.000000000000000E+000
 U1y  =  0.000000000000000E+000
 Phi1 =  0.000000000000000E+000
 U2x  =  0.000000000000000E+000
 U2y  =  0.000000000000000E+000
 Phi2 =  0.000000000000000E+000
 U3x  =  0.000000000000000E+000
 U3y  =  0.000000000000000E+000
 Phi3 =  0.000000000000000E+000
 U4x  =  0.000000000000000E+000
 U4y  =  0.000000000000000E+000
 Phi4 =  0.000000000000000E+000
 ***********************************
 CURRENT ELEMENT NUMBER::::          57
 NUMBER OF NODES:::           4
 DOFs:::           2
 TOTAL DOF OF ELEMENT:::           12
 ************************************
          57
 AREA1  0.000000000000000E+000
 AREA2  0.000000000000000E+000
 U1x  =  0.000000000000000E+000
 U1y  =  0.000000000000000E+000
 Phi1 =  0.000000000000000E+000
 U2x  =  0.000000000000000E+000
 U2y  =  0.000000000000000E+000
 Phi2 =  0.000000000000000E+000
 U3x  =  0.000000000000000E+000
 U3y  =  0.000000000000000E+000
 Phi3 =  0.000000000000000E+000
 U4x  =  0.000000000000000E+000
 U4y  =  0.000000000000000E+000
 Phi4 =  0.000000000000000E+000
 ***********************************
 CURRENT ELEMENT NUMBER::::          58
 NUMBER OF NODES:::           4
 DOFs:::           2
 TOTAL DOF OF ELEMENT:::           12
 ************************************
          58
 AREA1  0.000000000000000E+000
 AREA2  0.000000000000000E+000
 U1x  =  0.000000000000000E+000
 U1y  =  0.000000000000000E+000
 Phi1 =  0.000000000000000E+000
 U2x  =  0.000000000000000E+000
 U2y  =  0.000000000000000E+000
 Phi2 =  0.000000000000000E+000
 U3x  =  0.000000000000000E+000
 U3y  =  0.000000000000000E+000
 Phi3 =  0.000000000000000E+000
 U4x  =  0.000000000000000E+000
 U4y  =  0.000000000000000E+000
 Phi4 =  0.000000000000000E+000
 ***********************************
 CURRENT ELEMENT NUMBER::::          59
 NUMBER OF NODES:::           4
 DOFs:::           2
 TOTAL DOF OF ELEMENT:::           12
 ************************************
          59
 AREA1  0.000000000000000E+000
 AREA2  0.000000000000000E+000
 U1x  =  0.000000000000000E+000
 U1y  =  0.000000000000000E+000
 Phi1 =  0.000000000000000E+000
 U2x  =  0.000000000000000E+000
 U2y  =  0.000000000000000E+000
 Phi2 =  0.000000000000000E+000
 U3x  =  0.000000000000000E+000
 U3y  =  0.000000000000000E+000
 Phi3 =  0.000000000000000E+000
 U4x  =  0.000000000000000E+000
 U4y  =  0.000000000000000E+000
 Phi4 =  0.000000000000000E+000
 ***********************************
 CURRENT ELEMENT NUMBER::::          60
 NUMBER OF NODES:::           4
 DOFs:::           2
 TOTAL DOF OF ELEMENT:::           12
 ************************************
          60
 AREA1  0.000000000000000E+000
 AREA2  0.000000000000000E+000
 U1x  =  0.000000000000000E+000
 U1y  =  0.000000000000000E+000
 Phi1 =  0.000000000000000E+000
 U2x  =  0.000000000000000E+000
 U2y  =  0.000000000000000E+000
 Phi2 =  0.000000000000000E+000
 U3x  =  0.000000000000000E+000
 U3y  =  0.000000000000000E+000
 Phi3 =  0.000000000000000E+000
 U4x  =  0.000000000000000E+000
 U4y  =  0.000000000000000E+000
 Phi4 =  0.000000000000000E+000
 ***********************************
 CURRENT ELEMENT NUMBER::::          61
 NUMBER OF NODES:::           4
 DOFs:::           2
 TOTAL DOF OF ELEMENT:::           12
 ************************************
          61
 AREA1  0.000000000000000E+000
 AREA2  0.000000000000000E+000
 U1x  =  0.000000000000000E+000
 U1y  =  0.000000000000000E+000
 Phi1 =  0.000000000000000E+000
 U2x  =  0.000000000000000E+000
 U2y  =  0.000000000000000E+000
 Phi2 =  0.000000000000000E+000
 U3x  =  0.000000000000000E+000
 U3y  =  0.000000000000000E+000
 Phi3 =  0.000000000000000E+000
 U4x  =  0.000000000000000E+000
 U4y  =  0.000000000000000E+000
 Phi4 =  0.000000000000000E+000
 ***********************************
 CURRENT ELEMENT NUMBER::::          62
 NUMBER OF NODES:::           4
 DOFs:::           2
 TOTAL DOF OF ELEMENT:::           12
 ************************************
          62
 AREA1  0.000000000000000E+000
 AREA2  0.000000000000000E+000
 U1x  =  0.000000000000000E+000
 U1y  =  0.000000000000000E+000
 Phi1 =  0.000000000000000E+000
 U2x  =  0.000000000000000E+000
 U2y  =  0.000000000000000E+000
 Phi2 =  0.000000000000000E+000
 U3x  =  0.000000000000000E+000
 U3y  =  0.000000000000000E+000
 Phi3 =  0.000000000000000E+000
 U4x  =  0.000000000000000E+000
 U4y  =  0.000000000000000E+000
 Phi4 =  0.000000000000000E+000
 ***********************************
 CURRENT ELEMENT NUMBER::::          63
 NUMBER OF NODES:::           4
 DOFs:::           2
 TOTAL DOF OF ELEMENT:::           12
 ************************************
          63
 AREA1  0.000000000000000E+000
 AREA2  0.000000000000000E+000
 U1x  =  0.000000000000000E+000
 U1y  =  0.000000000000000E+000
 Phi1 =  0.000000000000000E+000
 U2x  =  0.000000000000000E+000
 U2y  =  0.000000000000000E+000
 Phi2 =  0.000000000000000E+000
 U3x  =  0.000000000000000E+000
 U3y  =  0.000000000000000E+000
 Phi3 =  0.000000000000000E+000
 U4x  =  0.000000000000000E+000
 U4y  =  0.000000000000000E+000
 Phi4 =  0.000000000000000E+000
 ***********************************
 CURRENT ELEMENT NUMBER::::          64
 NUMBER OF NODES:::           4
 DOFs:::           2
 TOTAL DOF OF ELEMENT:::           12
 ************************************
          64
 AREA1  0.000000000000000E+000
 AREA2  0.000000000000000E+000
 U1x  =  0.000000000000000E+000
 U1y  =  0.000000000000000E+000
 Phi1 =  0.000000000000000E+000
 U2x  =  0.000000000000000E+000
 U2y  =  0.000000000000000E+000
 Phi2 =  0.000000000000000E+000
 U3x  =  0.000000000000000E+000
 U3y  =  0.000000000000000E+000
 Phi3 =  0.000000000000000E+000
 U4x  =  0.000000000000000E+000
 U4y  =  0.000000000000000E+000
 Phi4 =  0.000000000000000E+000
 ***********************************
 CURRENT ELEMENT NUMBER::::          65
 NUMBER OF NODES:::           4
 DOFs:::           2
 TOTAL DOF OF ELEMENT:::           12
 ************************************
          65
 AREA1  0.000000000000000E+000
 AREA2  0.000000000000000E+000
 U1x  =  0.000000000000000E+000
 U1y  =  0.000000000000000E+000
 Phi1 =  0.000000000000000E+000
 U2x  =  0.000000000000000E+000
 U2y  =  0.000000000000000E+000
 Phi2 =  0.000000000000000E+000
 U3x  =  0.000000000000000E+000
 U3y  =  0.000000000000000E+000
 Phi3 =  0.000000000000000E+000
 U4x  =  0.000000000000000E+000
 U4y  =  0.000000000000000E+000
 Phi4 =  0.000000000000000E+000
 ***********************************
 CURRENT ELEMENT NUMBER::::          66
 NUMBER OF NODES:::           4
 DOFs:::           2
 TOTAL DOF OF ELEMENT:::           12
 ************************************
          66
 AREA1  0.000000000000000E+000
 AREA2  0.000000000000000E+000
 U1x  =  0.000000000000000E+000
 U1y  =  0.000000000000000E+000
 Phi1 =  0.000000000000000E+000
 U2x  =  0.000000000000000E+000
 U2y  =  0.000000000000000E+000
 Phi2 =  0.000000000000000E+000
 U3x  =  0.000000000000000E+000
 U3y  =  0.000000000000000E+000
 Phi3 =  0.000000000000000E+000
 U4x  =  0.000000000000000E+000
 U4y  =  0.000000000000000E+000
 Phi4 =  0.000000000000000E+000
 ***********************************
 CURRENT ELEMENT NUMBER::::          67
 NUMBER OF NODES:::           4
 DOFs:::           2
 TOTAL DOF OF ELEMENT:::           12
 ************************************
          67
 AREA1  0.000000000000000E+000
 AREA2  0.000000000000000E+000
 U1x  =  0.000000000000000E+000
 U1y  =  0.000000000000000E+000
 Phi1 =  0.000000000000000E+000
 U2x  =  0.000000000000000E+000
 U2y  =  0.000000000000000E+000
 Phi2 =  0.000000000000000E+000
 U3x  =  0.000000000000000E+000
 U3y  =  0.000000000000000E+000
 Phi3 =  0.000000000000000E+000
 U4x  =  0.000000000000000E+000
 U4y  =  0.000000000000000E+000
 Phi4 =  0.000000000000000E+000
 ***********************************
 CURRENT ELEMENT NUMBER::::          68
 NUMBER OF NODES:::           4
 DOFs:::           2
 TOTAL DOF OF ELEMENT:::           12
 ************************************
          68
 AREA1  0.000000000000000E+000
 AREA2  0.000000000000000E+000
 U1x  =  0.000000000000000E+000
 U1y  =  0.000000000000000E+000
 Phi1 =  0.000000000000000E+000
 U2x  =  0.000000000000000E+000
 U2y  =  0.000000000000000E+000
 Phi2 =  0.000000000000000E+000
 U3x  =  0.000000000000000E+000
 U3y  =  0.000000000000000E+000
 Phi3 =  0.000000000000000E+000
 U4x  =  0.000000000000000E+000
 U4y  =  0.000000000000000E+000
 Phi4 =  0.000000000000000E+000
 ***********************************
 CURRENT ELEMENT NUMBER::::          69
 NUMBER OF NODES:::           4
 DOFs:::           2
 TOTAL DOF OF ELEMENT:::           12
 ************************************
          69
 AREA1  0.000000000000000E+000
 AREA2  0.000000000000000E+000
 U1x  =  0.000000000000000E+000
 U1y  =  0.000000000000000E+000
 Phi1 =  0.000000000000000E+000
 U2x  =  0.000000000000000E+000
 U2y  =  0.000000000000000E+000
 Phi2 =  0.000000000000000E+000
 U3x  =  0.000000000000000E+000
 U3y  =  0.000000000000000E+000
 Phi3 =  0.000000000000000E+000
 U4x  =  0.000000000000000E+000
 U4y  =  0.000000000000000E+000
 Phi4 =  0.000000000000000E+000
 ***********************************
 CURRENT ELEMENT NUMBER::::          70
 NUMBER OF NODES:::           4
 DOFs:::           2
 TOTAL DOF OF ELEMENT:::           12
 ************************************
          70
 AREA1  0.000000000000000E+000
 AREA2  0.000000000000000E+000
 U1x  =  0.000000000000000E+000
 U1y  =  0.000000000000000E+000
 Phi1 =  0.000000000000000E+000
 U2x  =  0.000000000000000E+000
 U2y  =  0.000000000000000E+000
 Phi2 =  0.000000000000000E+000
 U3x  =  0.000000000000000E+000
 U3y  =  0.000000000000000E+000
 Phi3 =  0.000000000000000E+000
 U4x  =  0.000000000000000E+000
 U4y  =  0.000000000000000E+000
 Phi4 =  0.000000000000000E+000


  INCREMENT     1 STARTS. ATTEMPT NUMBER  1, TIME INCREMENT   1.00    
 ***********************************
 CURRENT ELEMENT NUMBER::::           1
 NUMBER OF NODES:::           4
 DOFs:::           2
 TOTAL DOF OF ELEMENT:::           12
 ************************************
           1
 AREA1  0.000000000000000E+000
 AREA2  0.000000000000000E+000
 U1x  =  0.000000000000000E+000
 U1y  =  0.000000000000000E+000
 Phi1 =  0.000000000000000E+000
 U2x  =  0.000000000000000E+000
 U2y  =  0.000000000000000E+000
 Phi2 =  0.000000000000000E+000
 U3x  =  0.000000000000000E+000
 U3y  =  0.000000000000000E+000
 Phi3 =  0.000000000000000E+000
 U4x  =  0.000000000000000E+000
 U4y  =  0.000000000000000E+000
 Phi4 =  0.000000000000000E+000
 ***********************************
 CURRENT ELEMENT NUMBER::::           2
 NUMBER OF NODES:::           4
 DOFs:::           2
 TOTAL DOF OF ELEMENT:::           12
 ************************************
           2
 AREA1  0.000000000000000E+000
 AREA2  0.000000000000000E+000
 U1x  =  0.000000000000000E+000
 U1y  =  0.000000000000000E+000
 Phi1 =  0.000000000000000E+000
 U2x  =  0.000000000000000E+000
 U2y  =  0.000000000000000E+000
 Phi2 =  0.000000000000000E+000
 U3x  =  0.000000000000000E+000
 U3y  =  0.000000000000000E+000
 Phi3 =  0.000000000000000E+000
 U4x  =  0.000000000000000E+000
 U4y  =  0.000000000000000E+000
 Phi4 =  0.000000000000000E+000
 ***********************************
 CURRENT ELEMENT NUMBER::::           3
 NUMBER OF NODES:::           4
 DOFs:::           2
 TOTAL DOF OF ELEMENT:::           12
 ************************************
           3
 AREA1  0.000000000000000E+000
 AREA2  0.000000000000000E+000
 U1x  =  0.000000000000000E+000
 U1y  =  0.000000000000000E+000
 Phi1 =  0.000000000000000E+000
 U2x  =  0.000000000000000E+000
 U2y  =  0.000000000000000E+000
 Phi2 =  0.000000000000000E+000
 U3x  =  0.000000000000000E+000
 U3y  =  0.000000000000000E+000
 Phi3 =  0.000000000000000E+000
 U4x  =  0.000000000000000E+000
 U4y  =  0.000000000000000E+000
 Phi4 =  0.000000000000000E+000
 ***********************************
 CURRENT ELEMENT NUMBER::::           4
 NUMBER OF NODES:::           4
 DOFs:::           2
 TOTAL DOF OF ELEMENT:::           12
 ************************************
           4
 AREA1  0.000000000000000E+000
 AREA2  0.000000000000000E+000
 U1x  =  0.000000000000000E+000
 U1y  =  0.000000000000000E+000
 Phi1 =  0.000000000000000E+000
 U2x  =  0.000000000000000E+000
 U2y  =  0.000000000000000E+000
 Phi2 =  0.000000000000000E+000
 U3x  =  0.000000000000000E+000
 U3y  =  0.000000000000000E+000
 Phi3 =  0.000000000000000E+000
 U4x  =  0.000000000000000E+000
 U4y  =  0.000000000000000E+000
 Phi4 =  0.000000000000000E+000
 ***********************************
 CURRENT ELEMENT NUMBER::::           5
 NUMBER OF NODES:::           4
 DOFs:::           2
 TOTAL DOF OF ELEMENT:::           12
 ************************************
           5
 AREA1  0.000000000000000E+000
 AREA2  0.000000000000000E+000
 U1x  =  0.000000000000000E+000
 U1y  =  0.000000000000000E+000
 Phi1 =  0.000000000000000E+000
 U2x  =  0.000000000000000E+000
 U2y  =  0.000000000000000E+000
 Phi2 =  0.000000000000000E+000
 U3x  =  0.000000000000000E+000
 U3y  =  0.000000000000000E+000
 Phi3 =  0.000000000000000E+000
 U4x  =  0.000000000000000E+000
 U4y  =  0.000000000000000E+000
 Phi4 =  0.000000000000000E+000
 ***********************************
 CURRENT ELEMENT NUMBER::::           6
 NUMBER OF NODES:::           4
 DOFs:::           2
 TOTAL DOF OF ELEMENT:::           12
 ************************************
           6
 AREA1  0.000000000000000E+000
 AREA2  0.000000000000000E+000
 U1x  =  0.000000000000000E+000
 U1y  =  0.000000000000000E+000
 Phi1 =  0.000000000000000E+000
 U2x  =  0.000000000000000E+000
 U2y  =  0.000000000000000E+000
 Phi2 =  0.000000000000000E+000
 U3x  =  0.000000000000000E+000
 U3y  =  0.000000000000000E+000
 Phi3 =  0.000000000000000E+000
 U4x  =  0.000000000000000E+000
 U4y  =  0.000000000000000E+000
 Phi4 =  0.000000000000000E+000
 ***********************************
 CURRENT ELEMENT NUMBER::::           7
 NUMBER OF NODES:::           4
 DOFs:::           2
 TOTAL DOF OF ELEMENT:::           12
 ************************************
           7
 AREA1  0.000000000000000E+000
 AREA2  0.000000000000000E+000
 U1x  =  0.000000000000000E+000
 U1y  =  0.000000000000000E+000
 Phi1 =  0.000000000000000E+000
 U2x  =  0.000000000000000E+000
 U2y  =  0.000000000000000E+000
 Phi2 =  0.000000000000000E+000
 U3x  =  0.000000000000000E+000
 U3y  =  0.000000000000000E+000
 Phi3 =  0.000000000000000E+000
 U4x  =  0.000000000000000E+000
 U4y  =  0.000000000000000E+000
 Phi4 =  0.000000000000000E+000
 ***********************************
 CURRENT ELEMENT NUMBER::::           8
 NUMBER OF NODES:::           4
 DOFs:::           2
 TOTAL DOF OF ELEMENT:::           12
 ************************************
           8
 AREA1  0.000000000000000E+000
 AREA2  0.000000000000000E+000
 U1x  =  0.000000000000000E+000
 U1y  =  0.000000000000000E+000
 Phi1 =  0.000000000000000E+000
 U2x  =  0.000000000000000E+000
 U2y  =  0.000000000000000E+000
 Phi2 =  0.000000000000000E+000
 U3x  =  0.000000000000000E+000
 U3y  =  0.000000000000000E+000
 Phi3 =  0.000000000000000E+000
 U4x  =  0.000000000000000E+000
 U4y  =  0.000000000000000E+000
 Phi4 =  0.000000000000000E+000
 ***********************************
 CURRENT ELEMENT NUMBER::::           9
 NUMBER OF NODES:::           4
 DOFs:::           2
 TOTAL DOF OF ELEMENT:::           12
 ************************************
           9
 AREA1  0.000000000000000E+000
 AREA2  0.000000000000000E+000
 U1x  =  0.000000000000000E+000
 U1y  =  0.000000000000000E+000
 Phi1 =  0.000000000000000E+000
 U2x  =  0.000000000000000E+000
 U2y  =  0.000000000000000E+000
 Phi2 =  0.000000000000000E+000
 U3x  =  0.000000000000000E+000
 U3y  =  0.000000000000000E+000
 Phi3 =  0.000000000000000E+000
 U4x  =  0.000000000000000E+000
 U4y  =  0.000000000000000E+000
 Phi4 =  0.000000000000000E+000
 ***********************************
 CURRENT ELEMENT NUMBER::::          10
 NUMBER OF NODES:::           4
 DOFs:::           2
 TOTAL DOF OF ELEMENT:::           12
 ************************************
          10
 AREA1  0.000000000000000E+000
 AREA2  0.000000000000000E+000
 U1x  =  0.000000000000000E+000
 U1y  =  0.000000000000000E+000
 Phi1 =  0.000000000000000E+000
 U2x  =  0.000000000000000E+000
 U2y  =  0.000000000000000E+000
 Phi2 =  0.000000000000000E+000
 U3x  =  0.000000000000000E+000
 U3y  =  0.000000000000000E+000
 Phi3 =  0.000000000000000E+000
 U4x  =  0.000000000000000E+000
 U4y  =  0.000000000000000E+000
 Phi4 =  0.000000000000000E+000
 ***********************************
 CURRENT ELEMENT NUMBER::::          11
 NUMBER OF NODES:::           4
 DOFs:::           2
 TOTAL DOF OF ELEMENT:::           12
 ************************************
          11
 AREA1  0.000000000000000E+000
 AREA2  0.000000000000000E+000
 U1x  =  0.000000000000000E+000
 U1y  =  0.000000000000000E+000
 Phi1 =  0.000000000000000E+000
 U2x  =  0.000000000000000E+000
 U2y  =  0.000000000000000E+000
 Phi2 =  0.000000000000000E+000
 U3x  =  0.000000000000000E+000
 U3y  =  0.000000000000000E+000
 Phi3 =  0.000000000000000E+000
 U4x  =  0.000000000000000E+000
 U4y  =  0.000000000000000E+000
 Phi4 =  0.000000000000000E+000
 ***********************************
 CURRENT ELEMENT NUMBER::::          12
 NUMBER OF NODES:::           4
 DOFs:::           2
 TOTAL DOF OF ELEMENT:::           12
 ************************************
          12
 AREA1  0.000000000000000E+000
 AREA2  0.000000000000000E+000
 U1x  =  0.000000000000000E+000
 U1y  =  0.000000000000000E+000
 Phi1 =  0.000000000000000E+000
 U2x  =  0.000000000000000E+000
 U2y  =  0.000000000000000E+000
 Phi2 =  0.000000000000000E+000
 U3x  =  0.000000000000000E+000
 U3y  =  0.000000000000000E+000
 Phi3 =  0.000000000000000E+000
 U4x  =  0.000000000000000E+000
 U4y  =  0.000000000000000E+000
 Phi4 =  0.000000000000000E+000
 ***********************************
 CURRENT ELEMENT NUMBER::::          13
 NUMBER OF NODES:::           4
 DOFs:::           2
 TOTAL DOF OF ELEMENT:::           12
 ************************************
          13
 AREA1  0.000000000000000E+000
 AREA2  0.000000000000000E+000
 U1x  =  0.000000000000000E+000
 U1y  =  0.000000000000000E+000
 Phi1 =  0.000000000000000E+000
 U2x  =  0.000000000000000E+000
 U2y  =  0.000000000000000E+000
 Phi2 =  0.000000000000000E+000
 U3x  =  0.000000000000000E+000
 U3y  =  0.000000000000000E+000
 Phi3 =  0.000000000000000E+000
 U4x  =  0.000000000000000E+000
 U4y  =  0.000000000000000E+000
 Phi4 =  0.000000000000000E+000
 ***********************************
 CURRENT ELEMENT NUMBER::::          14
 NUMBER OF NODES:::           4
 DOFs:::           2
 TOTAL DOF OF ELEMENT:::           12
 ************************************
          14
 AREA1  0.000000000000000E+000
 AREA2  0.000000000000000E+000
 U1x  =  0.000000000000000E+000
 U1y  =  0.000000000000000E+000
 Phi1 =  0.000000000000000E+000
 U2x  =  0.000000000000000E+000
 U2y  =  0.000000000000000E+000
 Phi2 =  0.000000000000000E+000
 U3x  =  0.000000000000000E+000
 U3y  =  0.000000000000000E+000
 Phi3 =  0.000000000000000E+000
 U4x  =  0.000000000000000E+000
 U4y  =  0.000000000000000E+000
 Phi4 =  0.000000000000000E+000
 ***********************************
 CURRENT ELEMENT NUMBER::::          15
 NUMBER OF NODES:::           4
 DOFs:::           2
 TOTAL DOF OF ELEMENT:::           12
 ************************************
          15
 AREA1  0.000000000000000E+000
 AREA2  0.000000000000000E+000
 U1x  =  0.000000000000000E+000
 U1y  =  0.000000000000000E+000
 Phi1 =  0.000000000000000E+000
 U2x  =  0.000000000000000E+000
 U2y  =  0.000000000000000E+000
 Phi2 =  0.000000000000000E+000
 U3x  =  0.000000000000000E+000
 U3y  =  0.000000000000000E+000
 Phi3 =  0.000000000000000E+000
 U4x  =  0.000000000000000E+000
 U4y  =  0.000000000000000E+000
 Phi4 =  0.000000000000000E+000
 ***********************************
 CURRENT ELEMENT NUMBER::::          16
 NUMBER OF NODES:::           4
 DOFs:::           2
 TOTAL DOF OF ELEMENT:::           12
 ************************************
          16
 AREA1  0.000000000000000E+000
 AREA2  0.000000000000000E+000
 U1x  =  0.000000000000000E+000
 U1y  =  0.000000000000000E+000
 Phi1 =  0.000000000000000E+000
 U2x  =  0.000000000000000E+000
 U2y  =  0.000000000000000E+000
 Phi2 =  0.000000000000000E+000
 U3x  =  0.000000000000000E+000
 U3y  =  0.000000000000000E+000
 Phi3 =  0.000000000000000E+000
 U4x  =  0.000000000000000E+000
 U4y  =  0.000000000000000E+000
 Phi4 =  0.000000000000000E+000
 ***********************************
 CURRENT ELEMENT NUMBER::::          17
 NUMBER OF NODES:::           4
 DOFs:::           2
 TOTAL DOF OF ELEMENT:::           12
 ************************************
          17
 AREA1  0.000000000000000E+000
 AREA2  0.000000000000000E+000
 U1x  =  0.000000000000000E+000
 U1y  =  0.000000000000000E+000
 Phi1 =  0.000000000000000E+000
 U2x  =  0.000000000000000E+000
 U2y  =  0.000000000000000E+000
 Phi2 =  0.000000000000000E+000
 U3x  =  0.000000000000000E+000
 U3y  =  0.000000000000000E+000
 Phi3 =  0.000000000000000E+000
 U4x  =  0.000000000000000E+000
 U4y  =  0.000000000000000E+000
 Phi4 =  0.000000000000000E+000
 ***********************************
 CURRENT ELEMENT NUMBER::::          18
 NUMBER OF NODES:::           4
 DOFs:::           2
 TOTAL DOF OF ELEMENT:::           12
 ************************************
          18
 AREA1  0.000000000000000E+000
 AREA2  0.000000000000000E+000
 U1x  =  0.000000000000000E+000
 U1y  =  0.000000000000000E+000
 Phi1 =  0.000000000000000E+000
 U2x  =  0.000000000000000E+000
 U2y  =  0.000000000000000E+000
 Phi2 =  0.000000000000000E+000
 U3x  =  0.000000000000000E+000
 U3y  =  0.000000000000000E+000
 Phi3 =  0.000000000000000E+000
 U4x  =  0.000000000000000E+000
 U4y  =  0.000000000000000E+000
 Phi4 =  0.000000000000000E+000
 ***********************************
 CURRENT ELEMENT NUMBER::::          19
 NUMBER OF NODES:::           4
 DOFs:::           2
 TOTAL DOF OF ELEMENT:::           12
 ************************************
          19
 AREA1  0.000000000000000E+000
 AREA2  0.000000000000000E+000
 U1x  =  0.000000000000000E+000
 U1y  =  0.000000000000000E+000
 Phi1 =  0.000000000000000E+000
 U2x  =  0.000000000000000E+000
 U2y  =  0.000000000000000E+000
 Phi2 =  0.000000000000000E+000
 U3x  =  0.000000000000000E+000
 U3y  =  0.000000000000000E+000
 Phi3 =  0.000000000000000E+000
 U4x  =  0.000000000000000E+000
 U4y  =  0.000000000000000E+000
 Phi4 =  0.000000000000000E+000
 ***********************************
 CURRENT ELEMENT NUMBER::::          20
 NUMBER OF NODES:::           4
 DOFs:::           2
 TOTAL DOF OF ELEMENT:::           12
 ************************************
          20
 AREA1  0.000000000000000E+000
 AREA2  0.000000000000000E+000
 U1x  =  0.000000000000000E+000
 U1y  =  0.000000000000000E+000
 Phi1 =  0.000000000000000E+000
 U2x  =  0.000000000000000E+000
 U2y  =  0.000000000000000E+000
 Phi2 =  0.000000000000000E+000
 U3x  =  0.000000000000000E+000
 U3y  =  0.000000000000000E+000
 Phi3 =  0.000000000000000E+000
 U4x  =  0.000000000000000E+000
 U4y  =  0.000000000000000E+000
 Phi4 =  0.000000000000000E+000
 ***********************************
 CURRENT ELEMENT NUMBER::::          21
 NUMBER OF NODES:::           4
 DOFs:::           2
 TOTAL DOF OF ELEMENT:::           12
 ************************************
          21
 AREA1  0.000000000000000E+000
 AREA2  0.000000000000000E+000
 U1x  =  0.000000000000000E+000
 U1y  =  0.000000000000000E+000
 Phi1 =  0.000000000000000E+000
 U2x  =  0.000000000000000E+000
 U2y  =  0.000000000000000E+000
 Phi2 =  0.000000000000000E+000
 U3x  =  0.000000000000000E+000
 U3y  =  0.000000000000000E+000
 Phi3 =  0.000000000000000E+000
 U4x  =  0.000000000000000E+000
 U4y  =  0.000000000000000E+000
 Phi4 =  0.000000000000000E+000
 ***********************************
 CURRENT ELEMENT NUMBER::::          22
 NUMBER OF NODES:::           4
 DOFs:::           2
 TOTAL DOF OF ELEMENT:::           12
 ************************************
          22
 AREA1  0.000000000000000E+000
 AREA2  0.000000000000000E+000
 U1x  =  0.000000000000000E+000
 U1y  =  0.000000000000000E+000
 Phi1 =  0.000000000000000E+000
 U2x  =  0.000000000000000E+000
 U2y  =  0.000000000000000E+000
 Phi2 =  0.000000000000000E+000
 U3x  =  0.000000000000000E+000
 U3y  =  0.000000000000000E+000
 Phi3 =  0.000000000000000E+000
 U4x  =  0.000000000000000E+000
 U4y  =  0.000000000000000E+000
 Phi4 =  0.000000000000000E+000
 ***********************************
 CURRENT ELEMENT NUMBER::::          23
 NUMBER OF NODES:::           4
 DOFs:::           2
 TOTAL DOF OF ELEMENT:::           12
 ************************************
          23
 AREA1  0.000000000000000E+000
 AREA2  0.000000000000000E+000
 U1x  =  0.000000000000000E+000
 U1y  =  0.000000000000000E+000
 Phi1 =  0.000000000000000E+000
 U2x  =  0.000000000000000E+000
 U2y  =  0.000000000000000E+000
 Phi2 =  0.000000000000000E+000
 U3x  =  0.000000000000000E+000
 U3y  =  0.000000000000000E+000
 Phi3 =  0.000000000000000E+000
 U4x  =  0.000000000000000E+000
 U4y  =  0.000000000000000E+000
 Phi4 =  0.000000000000000E+000
 ***********************************
 CURRENT ELEMENT NUMBER::::          24
 NUMBER OF NODES:::           4
 DOFs:::           2
 TOTAL DOF OF ELEMENT:::           12
 ************************************
          24
 AREA1  0.000000000000000E+000
 AREA2  0.000000000000000E+000
 U1x  =  0.000000000000000E+000
 U1y  =  0.000000000000000E+000
 Phi1 =  0.000000000000000E+000
 U2x  =  0.000000000000000E+000
 U2y  =  0.000000000000000E+000
 Phi2 =  0.000000000000000E+000
 U3x  =  0.000000000000000E+000
 U3y  =  0.000000000000000E+000
 Phi3 =  0.000000000000000E+000
 U4x  =  0.000000000000000E+000
 U4y  =  0.000000000000000E+000
 Phi4 =  0.000000000000000E+000
 ***********************************
 CURRENT ELEMENT NUMBER::::          25
 NUMBER OF NODES:::           4
 DOFs:::           2
 TOTAL DOF OF ELEMENT:::           12
 ************************************
          25
 AREA1  0.000000000000000E+000
 AREA2  0.000000000000000E+000
 U1x  =  0.000000000000000E+000
 U1y  =  0.000000000000000E+000
 Phi1 =  0.000000000000000E+000
 U2x  =  0.000000000000000E+000
 U2y  =  0.000000000000000E+000
 Phi2 =  0.000000000000000E+000
 U3x  =  0.000000000000000E+000
 U3y  =  0.000000000000000E+000
 Phi3 =  0.000000000000000E+000
 U4x  =  0.000000000000000E+000
 U4y  =  0.000000000000000E+000
 Phi4 =  0.000000000000000E+000
 ***********************************
 CURRENT ELEMENT NUMBER::::          26
 NUMBER OF NODES:::           4
 DOFs:::           2
 TOTAL DOF OF ELEMENT:::           12
 ************************************
          26
 AREA1  0.000000000000000E+000
 AREA2  0.000000000000000E+000
 U1x  =  0.000000000000000E+000
 U1y  =  0.000000000000000E+000
 Phi1 =  0.000000000000000E+000
 U2x  =  0.000000000000000E+000
 U2y  =  0.000000000000000E+000
 Phi2 =  0.000000000000000E+000
 U3x  =  0.000000000000000E+000
 U3y  =  0.000000000000000E+000
 Phi3 =  0.000000000000000E+000
 U4x  =  0.000000000000000E+000
 U4y  =  0.000000000000000E+000
 Phi4 =  0.000000000000000E+000
 ***********************************
 CURRENT ELEMENT NUMBER::::          27
 NUMBER OF NODES:::           4
 DOFs:::           2
 TOTAL DOF OF ELEMENT:::           12
 ************************************
          27
 AREA1  0.000000000000000E+000
 AREA2  0.000000000000000E+000
 U1x  =  0.000000000000000E+000
 U1y  =  0.000000000000000E+000
 Phi1 =  0.000000000000000E+000
 U2x  =  0.000000000000000E+000
 U2y  =  0.000000000000000E+000
 Phi2 =  0.000000000000000E+000
 U3x  =  0.000000000000000E+000
 U3y  =  0.000000000000000E+000
 Phi3 =  0.000000000000000E+000
 U4x  =  0.000000000000000E+000
 U4y  =  0.000000000000000E+000
 Phi4 =  0.000000000000000E+000
 ***********************************
 CURRENT ELEMENT NUMBER::::          28
 NUMBER OF NODES:::           4
 DOFs:::           2
 TOTAL DOF OF ELEMENT:::           12
 ************************************
          28
 AREA1  0.000000000000000E+000
 AREA2  0.000000000000000E+000
 U1x  =  0.000000000000000E+000
 U1y  =  0.000000000000000E+000
 Phi1 =  0.000000000000000E+000
 U2x  =  0.000000000000000E+000
 U2y  =  0.000000000000000E+000
 Phi2 =  0.000000000000000E+000
 U3x  =  0.000000000000000E+000
 U3y  =  0.000000000000000E+000
 Phi3 =  0.000000000000000E+000
 U4x  =  0.000000000000000E+000
 U4y  =  0.000000000000000E+000
 Phi4 =  0.000000000000000E+000
 ***********************************
 CURRENT ELEMENT NUMBER::::          29
 NUMBER OF NODES:::           4
 DOFs:::           2
 TOTAL DOF OF ELEMENT:::           12
 ************************************
          29
 AREA1  0.000000000000000E+000
 AREA2  0.000000000000000E+000
 U1x  =  0.000000000000000E+000
 U1y  =  0.000000000000000E+000
 Phi1 =  0.000000000000000E+000
 U2x  =  0.000000000000000E+000
 U2y  =  0.000000000000000E+000
 Phi2 =  0.000000000000000E+000
 U3x  =  0.000000000000000E+000
 U3y  =  0.000000000000000E+000
 Phi3 =  0.000000000000000E+000
 U4x  =  0.000000000000000E+000
 U4y  =  0.000000000000000E+000
 Phi4 =  0.000000000000000E+000
 ***********************************
 CURRENT ELEMENT NUMBER::::          30
 NUMBER OF NODES:::           4
 DOFs:::           2
 TOTAL DOF OF ELEMENT:::           12
 ************************************
          30
 AREA1  0.000000000000000E+000
 AREA2  0.000000000000000E+000
 U1x  =  0.000000000000000E+000
 U1y  =  0.000000000000000E+000
 Phi1 =  0.000000000000000E+000
 U2x  =  0.000000000000000E+000
 U2y  =  0.000000000000000E+000
 Phi2 =  0.000000000000000E+000
 U3x  =  0.000000000000000E+000
 U3y  =  0.000000000000000E+000
 Phi3 =  0.000000000000000E+000
 U4x  =  0.000000000000000E+000
 U4y  =  0.000000000000000E+000
 Phi4 =  0.000000000000000E+000
 ***********************************
 CURRENT ELEMENT NUMBER::::          31
 NUMBER OF NODES:::           4
 DOFs:::           2
 TOTAL DOF OF ELEMENT:::           12
 ************************************
          31
 AREA1  0.000000000000000E+000
 AREA2  0.000000000000000E+000
 U1x  =  0.000000000000000E+000
 U1y  =  0.000000000000000E+000
 Phi1 =  0.000000000000000E+000
 U2x  =  0.000000000000000E+000
 U2y  =  0.000000000000000E+000
 Phi2 =  0.000000000000000E+000
 U3x  =  0.000000000000000E+000
 U3y  =  0.000000000000000E+000
 Phi3 =  0.000000000000000E+000
 U4x  =  0.000000000000000E+000
 U4y  =  0.000000000000000E+000
 Phi4 =  0.000000000000000E+000
 ***********************************
 CURRENT ELEMENT NUMBER::::          32
 NUMBER OF NODES:::           4
 DOFs:::           2
 TOTAL DOF OF ELEMENT:::           12
 ************************************
          32
 AREA1  0.000000000000000E+000
 AREA2  0.000000000000000E+000
 U1x  =  0.000000000000000E+000
 U1y  =  0.000000000000000E+000
 Phi1 =  0.000000000000000E+000
 U2x  =  0.000000000000000E+000
 U2y  =  0.000000000000000E+000
 Phi2 =  0.000000000000000E+000
 U3x  =  0.000000000000000E+000
 U3y  =  0.000000000000000E+000
 Phi3 =  0.000000000000000E+000
 U4x  =  0.000000000000000E+000
 U4y  =  0.000000000000000E+000
 Phi4 =  0.000000000000000E+000
 ***********************************
 CURRENT ELEMENT NUMBER::::          33
 NUMBER OF NODES:::           4
 DOFs:::           2
 TOTAL DOF OF ELEMENT:::           12
 ************************************
          33
 AREA1  0.000000000000000E+000
 AREA2  0.000000000000000E+000
 U1x  =  0.000000000000000E+000
 U1y  =  0.000000000000000E+000
 Phi1 =  0.000000000000000E+000
 U2x  =  0.000000000000000E+000
 U2y  =  0.000000000000000E+000
 Phi2 =  0.000000000000000E+000
 U3x  =  0.000000000000000E+000
 U3y  =  0.000000000000000E+000
 Phi3 =  0.000000000000000E+000
 U4x  =  0.000000000000000E+000
 U4y  =  0.000000000000000E+000
 Phi4 =  0.000000000000000E+000
 ***********************************
 CURRENT ELEMENT NUMBER::::          34
 NUMBER OF NODES:::           4
 DOFs:::           2
 TOTAL DOF OF ELEMENT:::           12
 ************************************
          34
 AREA1  0.000000000000000E+000
 AREA2  0.000000000000000E+000
 U1x  =  0.000000000000000E+000
 U1y  =  0.000000000000000E+000
 Phi1 =  0.000000000000000E+000
 U2x  =  0.000000000000000E+000
 U2y  =  0.000000000000000E+000
 Phi2 =  0.000000000000000E+000
 U3x  =  0.000000000000000E+000
 U3y  =  0.000000000000000E+000
 Phi3 =  0.000000000000000E+000
 U4x  =  0.000000000000000E+000
 U4y  =  0.000000000000000E+000
 Phi4 =  0.000000000000000E+000
 ***********************************
 CURRENT ELEMENT NUMBER::::          35
 NUMBER OF NODES:::           4
 DOFs:::           2
 TOTAL DOF OF ELEMENT:::           12
 ************************************
          35
 AREA1  0.000000000000000E+000
 AREA2  0.000000000000000E+000
 U1x  =  0.000000000000000E+000
 U1y  =  0.000000000000000E+000
 Phi1 =  0.000000000000000E+000
 U2x  =  0.000000000000000E+000
 U2y  =  0.000000000000000E+000
 Phi2 =  0.000000000000000E+000
 U3x  =  0.000000000000000E+000
 U3y  =  0.000000000000000E+000
 Phi3 =  0.000000000000000E+000
 U4x  =  0.000000000000000E+000
 U4y  =  0.000000000000000E+000
 Phi4 =  0.000000000000000E+000
 ***********************************
 CURRENT ELEMENT NUMBER::::          36
 NUMBER OF NODES:::           4
 DOFs:::           2
 TOTAL DOF OF ELEMENT:::           12
 ************************************
          36
 AREA1  0.000000000000000E+000
 AREA2  0.000000000000000E+000
 U1x  =  0.000000000000000E+000
 U1y  =  0.000000000000000E+000
 Phi1 =  0.000000000000000E+000
 U2x  =  0.000000000000000E+000
 U2y  =  0.000000000000000E+000
 Phi2 =  0.000000000000000E+000
 U3x  =  0.000000000000000E+000
 U3y  =  0.000000000000000E+000
 Phi3 =  0.000000000000000E+000
 U4x  =  0.000000000000000E+000
 U4y  =  0.000000000000000E+000
 Phi4 =  0.000000000000000E+000
 ***********************************
 CURRENT ELEMENT NUMBER::::          37
 NUMBER OF NODES:::           4
 DOFs:::           2
 TOTAL DOF OF ELEMENT:::           12
 ************************************
          37
 AREA1  0.000000000000000E+000
 AREA2  0.000000000000000E+000
 U1x  =  0.000000000000000E+000
 U1y  =  0.000000000000000E+000
 Phi1 =  0.000000000000000E+000
 U2x  =  0.000000000000000E+000
 U2y  =  0.000000000000000E+000
 Phi2 =  0.000000000000000E+000
 U3x  =  0.000000000000000E+000
 U3y  =  0.000000000000000E+000
 Phi3 =  0.000000000000000E+000
 U4x  =  0.000000000000000E+000
 U4y  =  0.000000000000000E+000
 Phi4 =  0.000000000000000E+000
 ***********************************
 CURRENT ELEMENT NUMBER::::          38
 NUMBER OF NODES:::           4
 DOFs:::           2
 TOTAL DOF OF ELEMENT:::           12
 ************************************
          38
 AREA1  0.000000000000000E+000
 AREA2  0.000000000000000E+000
 U1x  =  0.000000000000000E+000
[...]
          45
 AREA1 -0.990317632296836     
 AREA2  -6.45267018471588     
 U1x  =  2.674942700213955E-005
 U1y  =  7.179778630929606E-004
 Phi1 =  -258.770641883523     
 U2x  =  2.488587189012173E-005
 U2y  =  6.967961158495911E-004
 Phi2 =  -232.685872860904     
 U3x  =  1.979710275584096E-005
 U3y  =  5.486255742390043E-004
 Phi3 =   23.6925400901777     
 U4x  =  2.099465194109757E-005
 U4y  =  5.633785536722969E-004
 Phi4 =   10.3369347883477     
 ***********************************
 CURRENT ELEMENT NUMBER::::          46
 NUMBER OF NODES:::           4
 DOFs:::           2
 TOTAL DOF OF ELEMENT:::           12
 ************************************
          46
 AREA1 -0.460862400765172     
 AREA2  -6.81396845655243     
 U1x  =  2.718827571532195E-005
 U1y  =  7.662817199088470E-004
 Phi1 =  -295.256455949738     
 U2x  =  3.296656051726902E-005
 U2y  =  8.939695239571846E-004
 Phi2 =  -514.195470711400     
 U3x  =  3.367625054045337E-005
 U3y  =  8.788058876282509E-004
 Phi3 =  -507.029176462529     
 U4x  =  2.761137002479247E-005
 U4y  =  7.355406633540524E-004
 Phi4 =  -259.845410049973     
 ***********************************
 CURRENT ELEMENT NUMBER::::          47
 NUMBER OF NODES:::           4
 DOFs:::           2
 TOTAL DOF OF ELEMENT:::           12
 ************************************
          47
 AREA1 -0.684200986898708     
 AREA2  -6.67657047868053     
 U1x  =  7.893810543861905E-006
 U1y  =  2.659659627264511E-004
 Phi1 =   544.274170787172     
 U2x  =  8.143828214580234E-006
 U2y  =  2.850766780975548E-004
 Phi2 =   529.308357290529     
 U3x  =  1.252642226665014E-005
 U3y  =  3.987030665326445E-004
 Phi3 =   330.584523631978     
 U4x  =  1.244978477375695E-005
 U4y  =  3.815538535193259E-004
 Phi4 =   345.234560983566     
 ***********************************
 CURRENT ELEMENT NUMBER::::          48
 NUMBER OF NODES:::           4
 DOFs:::           2
 TOTAL DOF OF ELEMENT:::           12
 ************************************
          48
 AREA1  -1.11091380938035     
 AREA2  -6.64645162236110     
 U1x  =  1.482391955304647E-005
 U1y  =  4.011432680812029E-004
 Phi1 =   285.297231842811     
 U2x  =  2.099465194109757E-005
 U2y  =  5.633785536722969E-004
 Phi2 =   10.3369347883477     
 U3x  =  1.979710275584096E-005
 U3y  =  5.486255742390043E-004
 Phi3 =   23.6925400901777     
 U4x  =  1.459300707890252E-005
 U4y  =  3.987931778310254E-004
 Phi4 =   278.494665796804     
 ***********************************
 CURRENT ELEMENT NUMBER::::          49
 NUMBER OF NODES:::           4
 DOFs:::           2
 TOTAL DOF OF ELEMENT:::           12
 ************************************
          49
 AREA1 -0.832518801635372     
 AREA2  -7.09555346314541     
 U1x  =  1.244978477375695E-005
 U1y  =  3.815538535193259E-004
 Phi1 =   345.234560983566     
 U2x  =  1.252642226665014E-005
 U2y  =  3.987030665326445E-004
 Phi2 =   330.584523631978     
 U3x  =  1.575872293026573E-005
 U3y  =  4.752345568227191E-004
 Phi3 =   195.135423880836     
 U4x  =  1.666449925740242E-005
 U4y  =  4.823624691506846E-004
 Phi4 =   173.026588981469     
 ***********************************
 CURRENT ELEMENT NUMBER::::          50
 NUMBER OF NODES:::           4
 DOFs:::           2
 TOTAL DOF OF ELEMENT:::           12
 ************************************
          50
 AREA1 -0.763411098016773     
 AREA2  -7.20131817128152     
 U1x  =  2.246473218608331E-005
 U1y  =  6.112024681897467E-004
 Phi1 =  -53.7179720212474     
 U2x  =  2.034644504176990E-005
 U2y  =  5.737967747472152E-004
 Phi2 =   20.0818923257651     
 U3x  =  2.326276069997033E-005
 U3y  =  6.499480262858468E-004
 Phi3 =  -106.543344623650     
 U4x  =  2.761137002479247E-005
 U4y  =  7.355406633540524E-004
 Phi4 =  -259.845410049973     
 ***********************************
 CURRENT ELEMENT NUMBER::::          51
 NUMBER OF NODES:::           4
 DOFs:::           2
 TOTAL DOF OF ELEMENT:::           12
 ************************************
          51
 AREA1 -0.654595348687015     
 AREA2  -5.91954410431930     
 U1x  =  3.532741289086378E-006
 U1y  =  1.388601858766454E-004
 Phi1 =   765.863728554966     
 U2x  =  4.120545646057806E-006
 U2y  =  1.522256269800183E-004
 Phi2 =   758.644568754107     
 U3x  =  8.143828214580234E-006
 U3y  =  2.850766780975548E-004
 Phi3 =   529.308357290529     
 U4x  =  7.893810543861905E-006
 U4y  =  2.659659627264511E-004
 Phi4 =   544.274170787172     
 ***********************************
 CURRENT ELEMENT NUMBER::::          52
 NUMBER OF NODES:::           4
 DOFs:::           2
 TOTAL DOF OF ELEMENT:::           12
 ************************************
          52
 AREA1 -0.914972821078525     
 AREA2  -6.62494150068236     
 U1x  =  8.950490366485895E-006
 U1y  =  3.154430464269139E-004
 Phi1 =   491.636976005702     
 U2x  =  1.459118446215572E-005
 U2y  =  4.729183444691562E-004
 Phi2 =   215.975196418564     
 U3x  =  1.252642226665014E-005
 U3y  =  3.987030665326445E-004
 Phi3 =   330.584523631978     
 U4x  =  8.143828214580234E-006
 U4y  =  2.850766780975548E-004
 Phi4 =   529.308357290529     
 ***********************************
 CURRENT ELEMENT NUMBER::::          53
 NUMBER OF NODES:::           4
 DOFs:::           2
 TOTAL DOF OF ELEMENT:::           12
 ************************************
          53
 AREA1 -0.244137881362605     
 AREA2  -5.75349851502913     
 U1x  =  3.370624821349967E-005
 U1y  =  8.714136654021773E-004
 Phi1 =  -512.015181428479     
 U2x  =  3.874563981757502E-005
 U2y  =  1.010659906638550E-003
 Phi2 =  -753.088909285329     
 U3x  =  3.730955679707202E-005
 U3y  =  9.999138294229124E-004
 Phi3 =  -751.484270471896     
 U4x  =  3.185358307303358E-005
 U4y  =  8.577347536850853E-004
 Phi4 =  -503.807241659038     
 ***********************************
 CURRENT ELEMENT NUMBER::::          54
 NUMBER OF NODES:::           4
 DOFs:::           2
 TOTAL DOF OF ELEMENT:::           12
 ************************************
          54
 AREA1 -0.655675091928355     
 AREA2  -6.46079236605385     
 U1x  =  3.185358307303358E-005
 U1y  =  8.577347536850853E-004
 Phi1 =  -503.807241659038     
 U2x  =  2.674942700213955E-005
 U2y  =  7.179778630929606E-004
 Phi2 =  -258.770641883523     
 U3x  =  2.832375442905099E-005
 U3y  =  7.436468583550390E-004
 Phi3 =  -291.337479048177     
 U4x  =  3.370624821349967E-005
 U4y  =  8.714136654021773E-004
 Phi4 =  -512.015181428479     
 ***********************************
 CURRENT ELEMENT NUMBER::::          55
 NUMBER OF NODES:::           4
 DOFs:::           2
 TOTAL DOF OF ELEMENT:::           12
 ************************************
          55
 AREA1  -1.02870156360904     
 AREA2  -6.96398737413309     
 U1x  =  1.819286509057289E-005
 U1y  =  5.446385823302817E-004
 Phi1 =   80.7483179365545     
 U2x  =  1.459118446215572E-005
 U2y  =  4.729183444691562E-004
 Phi2 =   215.975196418564     
 U3x  =  2.014009474070407E-005
 U3y  =  6.293743866302496E-004
 Phi3 =  -50.4235299220345     
 U4x  =  2.220713880629322E-005
 U4y  =  6.479213806987596E-004
 Phi4 =  -93.2370432395539     
 ***********************************
 CURRENT ELEMENT NUMBER::::          56
 NUMBER OF NODES:::           4
 DOFs:::           2
 TOTAL DOF OF ELEMENT:::           12
 ************************************
          56
 AREA1 -0.827455438051022     
 AREA2  -7.00062658775053     
 U1x  =  3.056025995643240E-005
 U1y  =  9.071881174568684E-004
 Phi1 =  -519.807817196421     
 U2x  =  3.296656051726902E-005
 U2y  =  8.939695239571846E-004
 Phi2 =  -514.195470711400     
 U3x  =  2.718827571532195E-005
 U3y  =  7.662817199088470E-004
 Phi3 =  -295.256455949738     
 U4x  =  2.531816634846840E-005
 U4y  =  7.691136049545864E-004
 Phi4 =  -287.552494314663     
 ***********************************
 CURRENT ELEMENT NUMBER::::          57
 NUMBER OF NODES:::           4
 DOFs:::           2
 TOTAL DOF OF ELEMENT:::           12
 ************************************
          57
 AREA1 -0.741610689680728     
 AREA2  -7.06135005487231     
 U1x  =  2.761137002479247E-005
 U1y  =  7.355406633540524E-004
 Phi1 =  -259.845410049973     
 U2x  =  2.832375442905099E-005
 U2y  =  7.436468583550390E-004
 Phi2 =  -291.337479048177     
 U3x  =  2.401790891588517E-005
 U3y  =  6.422212180170174E-004
 Phi3 =  -115.910958007187     
 U4x  =  2.246473218608331E-005
 U4y  =  6.112024681897467E-004
 Phi4 =  -53.7179720212474     
 ***********************************
 CURRENT ELEMENT NUMBER::::          58
 NUMBER OF NODES:::           4
 DOFs:::           2
 TOTAL DOF OF ELEMENT:::           12
 ************************************
          58
 AREA1 -0.851303993373886     
 AREA2  -7.18252932992887     
 U1x  =  1.666449925740242E-005
 U1y  =  4.823624691506846E-004
 Phi1 =   173.026588981469     
 U2x  =  1.838619055943586E-005
 U2y  =  5.066158817670779E-004
 Phi2 =   120.240364756416     
 U3x  =  1.364057649915802E-005
 U3y  =  3.883365713980433E-004
 Phi3 =   318.630800391367     
 U4x  =  1.244978477375695E-005
 U4y  =  3.815538535193259E-004
 Phi4 =   345.234560983566     
 ***********************************
 CURRENT ELEMENT NUMBER::::          59
 NUMBER OF NODES:::           4
 DOFs:::           2
 TOTAL DOF OF ELEMENT:::           12
 ************************************
          59
 AREA1 -0.895201057240864     
 AREA2  -6.21521076640570     
 U1x  =  9.028979272419105E-006
 U1y  =  3.313584793850126E-004
 Phi1 =   475.676461777617     
 U2x  =  8.950490366485895E-006
 U2y  =  3.154430464269139E-004
 Phi2 =   491.636976005702     
 U3x  =  3.800885013445491E-006
 U3y  =  1.695057703801981E-004
 Phi3 =   746.426708656984     
 U4x  =  4.385978445296934E-006
 U4y  =  1.842350062751892E-004
 Phi4 =   737.656137642331     
 ***********************************
 CURRENT ELEMENT NUMBER::::          60
 NUMBER OF NODES:::           4
 DOFs:::           2
 TOTAL DOF OF ELEMENT:::           12
 ************************************
          60
 AREA1 -0.662977944796447     
 AREA2  -6.80351351553730     
 U1x  =  8.299437641861471E-006
 U1y  =  2.596426873753802E-004
 Phi1 =   538.511695461502     
 U2x  =  7.893810543861905E-006
 U2y  =  2.659659627264511E-004
 Phi2 =   544.274170787172     
 U3x  =  1.244978477375695E-005
 U3y  =  3.815538535193259E-004
 Phi3 =   345.234560983566     
 U4x  =  1.364057649915802E-005
 U4y  =  3.883365713980433E-004
 Phi4 =   318.630800391367     
 ***********************************
 CURRENT ELEMENT NUMBER::::          61
 NUMBER OF NODES:::           4
 DOFs:::           2
 TOTAL DOF OF ELEMENT:::           12
 ************************************
          61
 AREA1 -0.991237838103572     
 AREA2  -6.98810908106323     
 U1x  =  1.482391955304647E-005
 U1y  =  4.011432680812029E-004
 Phi1 =   285.297231842811     
 U2x  =  1.364057649915802E-005
 U2y  =  3.883365713980433E-004
 Phi2 =   318.630800391367     
 U3x  =  1.838619055943586E-005
 U3y  =  5.066158817670779E-004
 Phi3 =   120.240364756416     
 U4x  =  2.099465194109757E-005
 U4y  =  5.633785536722969E-004
 Phi4 =   10.3369347883477     
 ***********************************
 CURRENT ELEMENT NUMBER::::          62
 NUMBER OF NODES:::           4
 DOFs:::           2
 TOTAL DOF OF ELEMENT:::           12
 ************************************
          62
 AREA1 -0.437229364445236     
 AREA2  -6.63744436437636     
 U1x  =  3.367625054045337E-005
 U1y  =  8.788058876282509E-004
 Phi1 =  -507.029176462529     
 U2x  =  3.370624821349967E-005
 U2y  =  8.714136654021773E-004
 Phi2 =  -512.015181428479     
 U3x  =  2.832375442905099E-005
 U3y  =  7.436468583550390E-004
 Phi3 =  -291.337479048177     
 U4x  =  2.761137002479247E-005
 U4y  =  7.355406633540524E-004
 Phi4 =  -259.845410049973     
 ***********************************
 CURRENT ELEMENT NUMBER::::          63
 NUMBER OF NODES:::           4
 DOFs:::           2
 TOTAL DOF OF ELEMENT:::           12
 ************************************
          63
 AREA1 -0.937001421112239     
 AREA2  -6.95994904390484     
 U1x  =  1.252642226665014E-005
 U1y  =  3.987030665326445E-004
 Phi1 =   330.584523631978     
 U2x  =  1.459118446215572E-005
 U2y  =  4.729183444691562E-004
 Phi2 =   215.975196418564     
 U3x  =  1.819286509057289E-005
 U3y  =  5.446385823302817E-004
 Phi3 =   80.7483179365545     
 U4x  =  1.575872293026573E-005
 U4y  =  4.752345568227191E-004
 Phi4 =   195.135423880836     
 ***********************************
 CURRENT ELEMENT NUMBER::::          64
 NUMBER OF NODES:::           4
 DOFs:::           2
 TOTAL DOF OF ELEMENT:::           12
 ************************************
          64
 AREA1 -0.840484757312206     
 AREA2  -6.72748776315651     
 U1x  =  2.674942700213955E-005
 U1y  =  7.179778630929606E-004
 Phi1 =  -258.770641883523     
 U2x  =  2.099465194109757E-005
 U2y  =  5.633785536722969E-004
 Phi2 =   10.3369347883477     
 U3x  =  2.401790891588517E-005
 U3y  =  6.422212180170174E-004
 Phi3 =  -115.910958007187     
 U4x  =  2.832375442905099E-005
 U4y  =  7.436468583550390E-004
 Phi4 =  -291.337479048177     
 ***********************************
 CURRENT ELEMENT NUMBER::::          65
 NUMBER OF NODES:::           4
 DOFs:::           2
 TOTAL DOF OF ELEMENT:::           12
 ************************************
          65
 AREA1  -1.01663697157350     
 AREA2  -6.98511683161976     
 U1x  =  2.220713880629322E-005
 U1y  =  6.479213806987596E-004
 Phi1 =  -93.2370432395539     
 U2x  =  2.014009474070407E-005
 U2y  =  6.293743866302496E-004
 Phi2 =  -50.4235299220345     
 U3x  =  2.531816634846840E-005
 U3y  =  7.691136049545864E-004
 Phi3 =  -287.552494314663     
 U4x  =  2.718827571532195E-005
 U4y  =  7.662817199088470E-004
 Phi4 =  -295.256455949738     
 ***********************************
 CURRENT ELEMENT NUMBER::::          66
 NUMBER OF NODES:::           4
 DOFs:::           2
 TOTAL DOF OF ELEMENT:::           12
 ************************************
          66
 AREA1 -0.921873790447916     
 AREA2  -7.22038480941231     
 U1x  =  1.819286509057289E-005
 U1y  =  5.446385823302817E-004
 Phi1 =   80.7483179365545     
 U2x  =  2.034644504176990E-005
 U2y  =  5.737967747472152E-004
 Phi2 =   20.0818923257651     
 U3x  =  1.666449925740242E-005
 U3y  =  4.823624691506846E-004
 Phi3 =   173.026588981469     
 U4x  =  1.575872293026573E-005
 U4y  =  4.752345568227191E-004
 Phi4 =   195.135423880836     
 ***********************************
 CURRENT ELEMENT NUMBER::::          67
 NUMBER OF NODES:::           4
 DOFs:::           2
 TOTAL DOF OF ELEMENT:::           12
 ************************************
          67
 AREA1 -0.818186258677961     
 AREA2  -7.14453382141721     
 U1x  =  2.326276069997033E-005
 U1y  =  6.499480262858468E-004
 Phi1 =  -106.543344623650     
 U2x  =  2.220713880629322E-005
 U2y  =  6.479213806987596E-004
 Phi2 =  -93.2370432395539     
 U3x  =  2.718827571532195E-005
 U3y  =  7.662817199088470E-004
 Phi3 =  -295.256455949738     
 U4x  =  2.761137002479247E-005
 U4y  =  7.355406633540524E-004
 Phi4 =  -259.845410049973     
 ***********************************
 CURRENT ELEMENT NUMBER::::          68
 NUMBER OF NODES:::           4
 DOFs:::           2
 TOTAL DOF OF ELEMENT:::           12
 ************************************
          68
 AREA1 -0.930084575693719     
 AREA2  -7.04284510502201     
 U1x  =  2.401790891588517E-005
 U1y  =  6.422212180170174E-004
 Phi1 =  -115.910958007187     
 U2x  =  2.099465194109757E-005
 U2y  =  5.633785536722969E-004
 Phi2 =   10.3369347883477     
 U3x  =  1.838619055943586E-005
 U3y  =  5.066158817670779E-004
 Phi3 =   120.240364756416     
 U4x  =  2.246473218608331E-005
 U4y  =  6.112024681897467E-004
 Phi4 =  -53.7179720212474     
 ***********************************
 CURRENT ELEMENT NUMBER::::          69
 NUMBER OF NODES:::           4
 DOFs:::           2
 TOTAL DOF OF ELEMENT:::           12
 ************************************
          69
 AREA1 -0.955623483547507     
 AREA2  -7.23687231411352     
 U1x  =  2.326276069997033E-005
 U1y  =  6.499480262858468E-004
 Phi1 =  -106.543344623650     
 U2x  =  2.034644504176990E-005
 U2y  =  5.737967747472152E-004
 Phi2 =   20.0818923257651     
 U3x  =  1.819286509057289E-005
 U3y  =  5.446385823302817E-004
 Phi3 =   80.7483179365545     
 U4x  =  2.220713880629322E-005
 U4y  =  6.479213806987596E-004
 Phi4 =  -93.2370432395539     
 ***********************************
 CURRENT ELEMENT NUMBER::::          70
 NUMBER OF NODES:::           4
 DOFs:::           2
 TOTAL DOF OF ELEMENT:::           12
 ************************************
          70
 AREA1 -0.939251519920685     
 AREA2  -7.27828095958111     
 U1x  =  2.034644504176990E-005
 U1y  =  5.737967747472152E-004
 Phi1 =   20.0818923257651     
 U2x  =  2.246473218608331E-005
 U2y  =  6.112024681897467E-004
 Phi2 =  -53.7179720212474     
 U3x  =  1.838619055943586E-005
 U3y  =  5.066158817670779E-004
 Phi3 =   120.240364756416     
 U4x  =  1.666449925740242E-005
 U4y  =  4.823624691506846E-004
 Phi4 =   173.026588981469     

               CONVERGENCE CHECKS FOR EQUILIBRIUM ITERATION     1


 AVERAGE FORCE                      0.208       TIME AVG. FORCE       0.208    
 LARGEST RESIDUAL FORCE            -5.340E-14   AT NODE         63   DOF  2
 LARGEST INCREMENT OF DISP.         1.215E-03   AT NODE          5   DOF  2
 LARGEST CORRECTION TO DISP.        1.215E-03   AT NODE          5   DOF  2
          THE FORCE     EQUILIBRIUM RESPONSE WAS LINEAR IN THIS INCREMENT

 AVERAGE CHARGE                     2.680E-06   TIME AVG. CHARGE      2.680E-06
 LARGEST RESIDUAL CHARGE           -2.160E-20   AT NODE         66   DOF  9
 LARGEST INCREMENT OF E. POT.       1.000E+03   AT NODE          1   DOF  9
 LARGEST CORRECTION TO E. POT.      1.000E+03   AT NODE          1   DOF  9
          THE CHARGE    EQUILIBRIUM RESPONSE WAS LINEAR IN THIS INCREMENT

 ITERATION SUMMARY FOR THE INCREMENT:   1 TOTAL ITERATIONS, OF WHICH
   0 ARE SEVERE DISCONTINUITY ITERATIONS AND  1 ARE EQUILIBRIUM ITERATIONS.

 TIME INCREMENT COMPLETED   1.00    ,  FRACTION OF STEP COMPLETED   1.00    
 STEP TIME COMPLETED        1.00    ,  TOTAL TIME COMPLETED         1.00    


          THE ANALYSIS HAS BEEN COMPLETED



     ANALYSIS SUMMARY:
     TOTAL OF          1  INCREMENTS
                       0  CUTBACKS IN AUTOMATIC INCREMENTATION
                       1  ITERATIONS INCLUDING CONTACT ITERATIONS IF PRESENT
                       1  PASSES THROUGH THE EQUATION SOLVER OF WHICH 
                       1  INVOLVE MATRIX DECOMPOSITION, INCLUDING
                       0  DECOMPOSITION(S) OF THE MASS MATRIX
                       1  REORDERING OF EQUATIONS TO MINIMIZE WAVEFRONT
                       0  ADDITIONAL RESIDUAL EVALUATIONS FOR LINE SEARCHES
                       0  ADDITIONAL OPERATOR EVALUATIONS FOR LINE SEARCHES
                       2  WARNING MESSAGES DURING USER INPUT PROCESSING
                       0  WARNING MESSAGES DURING ANALYSIS
                       0  ANALYSIS WARNINGS ARE NUMERICAL PROBLEM MESSAGES
                       0  ANALYSIS WARNINGS ARE NEGATIVE EIGENVALUE MESSAGES
                       0  ERROR MESSAGES



     JOB TIME SUMMARY
       USER TIME (SEC)      =  0.10000    
       SYSTEM TIME (SEC)    =  0.10000    
       TOTAL CPU TIME (SEC) =  0.20000    
       WALLCLOCK TIME (SEC) =          0
