1

   Abaqus 3DEXPERIENCE R2018x                                  Date 18-May-2020   Time 17:31:51
   For use by Supplied by Team-SolidSQUAD under license from Dassault Systemes or its subsidiary.

 Piezoelectric strip under Shear                                                 
                                                                                 
 STEP    1     INCREMENT     1     STEP TIME    0.00    


                        S T E P       1     S T A T I C   A N A L Y S I S


                                                                                          

     AUTOMATIC TIME CONTROL WITH -
          A SUGGESTED INITIAL TIME INCREMENT OF                 1.00    
          AND A TOTAL TIME PERIOD OF                            1.00    
          THE MINIMUM TIME INCREMENT ALLOWED IS                1.000E-05
          THE MAXIMUM TIME INCREMENT ALLOWED IS                 1.00    

     LINEAR EQUATION SOLVER TYPE         DIRECT SPARSE

 CONVERGENCE TOLERANCE PARAMETERS FOR FORCE    
     CRITERION FOR RESIDUAL FORCE     FOR A NONLINEAR PROBLEM          5.000E-03
     CRITERION FOR DISP.    CORRECTION IN A NONLINEAR PROBLEM          1.000E-02
     INITIAL VALUE OF TIME AVERAGE FORCE                               1.000E-02
     AVERAGE FORCE     IS TIME AVERAGE FORCE    
     ALTERNATE CRIT. FOR RESIDUAL FORCE     FOR A NONLINEAR PROBLEM    2.000E-02
     CRITERION FOR ZERO FORCE     RELATIVE TO TIME AVRG. FORCE         1.000E-05
     CRITERION FOR RESIDUAL FORCE     WHEN THERE IS ZERO FLUX          1.000E-05
     CRITERION FOR DISP.    CORRECTION WHEN THERE IS ZERO FLUX         1.000E-03
     CRITERION FOR RESIDUAL FORCE     FOR A LINEAR INCREMENT           1.000E-08
     FIELD CONVERSION RATIO                                             1.00    
     CRITERION FOR ZERO FORCE     REL. TO TIME AVRG. MAX. FORCE        1.000E-05
     CRITERION FOR ZERO DISP.    RELATIVE TO CHARACTERISTIC LENGTH     1.000E-08

 CONVERGENCE TOLERANCE PARAMETERS FOR CHARGE   
     CRITERION FOR RESIDUAL CHARGE    FOR A NONLINEAR PROBLEM          5.000E-03
     CRITERION FOR E. POT.  CORRECTION IN A NONLINEAR PROBLEM          1.000E-02
     INITIAL VALUE OF TIME AVERAGE CHARGE                              1.000E-02
     AVERAGE CHARGE    IS TIME AVERAGE CHARGE   
     ALTERNATE CRIT. FOR RESIDUAL CHARGE    FOR A NONLINEAR PROBLEM    2.000E-02
     CRITERION FOR ZERO CHARGE    RELATIVE TO TIME AVRG. CHARGE        1.000E-05
     CRITERION FOR RESIDUAL CHARGE    WHEN THERE IS ZERO FLUX          1.000E-05
     CRITERION FOR E. POT.  CORRECTION WHEN THERE IS ZERO FLUX         1.000E-03
     CRITERION FOR RESIDUAL CHARGE    FOR A LINEAR INCREMENT           1.000E-08
     FIELD CONVERSION RATIO                                             1.00    
     CRITERION FOR ZERO CHARGE    REL. TO TIME AVRG. MAX. CHARGE       1.000E-05

     VOLUMETRIC STRAIN COMPATIBILITY TOLERANCE FOR HYBRID SOLIDS       1.000E-05
     AXIAL STRAIN COMPATIBILITY TOLERANCE FOR HYBRID BEAMS             1.000E-05
     TRANS. SHEAR STRAIN COMPATIBILITY TOLERANCE FOR HYBRID BEAMS      1.000E-05
     SOFT CONTACT CONSTRAINT COMPATIBILITY TOLERANCE FOR P>P0          5.000E-03
     SOFT CONTACT CONSTRAINT COMPATIBILITY TOLERANCE FOR P=0.0         0.100    
     CONTACT FORCE ERROR TOLERANCE FOR CONVERT SDI=YES                 1.00    
     DISPLACEMENT COMPATIBILITY TOLERANCE FOR DCOUP ELEMENTS           1.000E-05
     ROTATION COMPATIBILITY TOLERANCE FOR DCOUP ELEMENTS               1.000E-05

 EQUILIBRIUM WILL BE CHECKED FOR SEVERE DISCONTINUITY ITERATIONS

 TIME INCREMENTATION CONTROL PARAMETERS:
     FIRST EQUILIBRIUM ITERATION FOR CONSECUTIVE DIVERGENCE CHECK              4
     EQUILIBRIUM ITERATION AT WHICH LOG. CONVERGENCE RATE CHECK BEGINS         8
     EQUILIBRIUM ITERATION AFTER WHICH ALTERNATE RESIDUAL IS USED              9
     MAXIMUM EQUILIBRIUM ITERATIONS ALLOWED                                   16
     EQUILIBRIUM ITERATION COUNT FOR CUT-BACK IN NEXT INCREMENT               10
     MAXIMUM EQUILIB. ITERS IN TWO INCREMENTS FOR TIME INCREMENT INCREASE      4
     MAXIMUM ITERATIONS FOR SEVERE DISCONTINUITIES                            50
     MAXIMUM ATTEMPTS ALLOWED IN AN INCREMENT                                  5
     MAXIMUM DISCON. ITERS IN TWO INCREMENTS FOR TIME INCREMENT INCREASE      50
     MAXIMUM CONTACT AUGMENTATIONS FOR *SURFACE BEHAVIOR,AUGMENTED LAGRANGE   50
     CUT-BACK FACTOR AFTER DIVERGENCE                                 0.2500    
     CUT-BACK FACTOR FOR TOO SLOW CONVERGENCE                         0.5000    
     CUT-BACK FACTOR AFTER TOO MANY EQUILIBRIUM ITERATIONS            0.7500    
     CUT-BACK FACTOR AFTER TOO MANY SEVERE DISCONTINUITY ITERATIONS   0.2500    
     CUT-BACK FACTOR AFTER PROBLEMS IN ELEMENT ASSEMBLY               0.2500    
     INCREASE FACTOR AFTER TWO INCREMENTS THAT CONVERGE QUICKLY        1.500    
     MAX. TIME INCREMENT INCREASE FACTOR ALLOWED                       1.500    
     MAX. TIME INCREMENT INCREASE FACTOR ALLOWED (DYNAMICS)            1.250    
     MAX. TIME INCREMENT INCREASE FACTOR ALLOWED (DIFFUSION)           2.000    
     MINIMUM TIME INCREMENT RATIO FOR EXTRAPOLATION TO OCCUR          0.1000    
     MAX. RATIO OF TIME INCREMENT TO STABILITY LIMIT                   1.000    
     FRACTION OF STABILITY LIMIT FOR NEW TIME INCREMENT               0.9500    
     TIME INCREMENT INCREASE FACTOR BEFORE A TIME POINT                1.000    
     GLOBAL STABILIZATION CONTROL IS NOT USED

          PRINT OF INCREMENT NUMBER, TIME, ETC., EVERY    1  INCREMENTS

     THE MAXIMUM NUMBER OF INCREMENTS IN THIS STEP IS                     100

     LINEAR EXTRAPOLATION WILL BE USED

     DETAILS REGARDING ACTUAL SOLUTION WAVEFRONT REQUESTED

     DETAILED OUTPUT OF DIAGNOSTICS TO DATABASE REQUESTED

     PRINT OF INCREMENT NUMBER, TIME, ETC., TO THE MESSAGE FILE EVERY     1  INCREMENTS

     COLLECTING MODEL CONSTRAINT INFORMATION FOR OVERCONSTRAINT CHECKS

     COLLECTING STEP CONSTRAINT INFORMATION FOR OVERCONSTRAINT CHECKS
 ***********************************
 CURRENT ELEMENT NUMBER::::           1
 NUMBER OF NODES:::           4
 DOFs:::           2
 TOTAL DOF OF ELEMENT:::           12
 ************************************
           1
 AREA1  0.000000000000000E+000
 AREA2  0.000000000000000E+000
 U1x  =  0.000000000000000E+000
 U1y  =  0.000000000000000E+000
 Phi1 =  0.000000000000000E+000
 U2x  =  0.000000000000000E+000
 U2y  =  0.000000000000000E+000
 Phi2 =  0.000000000000000E+000
 U3x  =  0.000000000000000E+000
 U3y  =  0.000000000000000E+000
 Phi3 =  0.000000000000000E+000
 U4x  =  0.000000000000000E+000
 U4y  =  0.000000000000000E+000
 Phi4 =  0.000000000000000E+000
 ***********************************
 CURRENT ELEMENT NUMBER::::           2
 NUMBER OF NODES:::           4
 DOFs:::           2
 TOTAL DOF OF ELEMENT:::           12
 ************************************
           2
 AREA1  0.000000000000000E+000
 AREA2  0.000000000000000E+000
 U1x  =  0.000000000000000E+000
 U1y  =  0.000000000000000E+000
 Phi1 =  0.000000000000000E+000
 U2x  =  0.000000000000000E+000
 U2y  =  0.000000000000000E+000
 Phi2 =  0.000000000000000E+000
 U3x  =  0.000000000000000E+000
 U3y  =  0.000000000000000E+000
 Phi3 =  0.000000000000000E+000
 U4x  =  0.000000000000000E+000
 U4y  =  0.000000000000000E+000
 Phi4 =  0.000000000000000E+000
 ***********************************
 CURRENT ELEMENT NUMBER::::           3
 NUMBER OF NODES:::           4
 DOFs:::           2
 TOTAL DOF OF ELEMENT:::           12
 ************************************
           3
 AREA1  0.000000000000000E+000
 AREA2  0.000000000000000E+000
 U1x  =  0.000000000000000E+000
 U1y  =  0.000000000000000E+000
 Phi1 =  0.000000000000000E+000
 U2x  =  0.000000000000000E+000
 U2y  =  0.000000000000000E+000
 Phi2 =  0.000000000000000E+000
 U3x  =  0.000000000000000E+000
 U3y  =  0.000000000000000E+000
 Phi3 =  0.000000000000000E+000
 U4x  =  0.000000000000000E+000
 U4y  =  0.000000000000000E+000
 Phi4 =  0.000000000000000E+000
 ***********************************
 CURRENT ELEMENT NUMBER::::           4
 NUMBER OF NODES:::           4
 DOFs:::           2
 TOTAL DOF OF ELEMENT:::           12
 ************************************
           4
 AREA1  0.000000000000000E+000
 AREA2  0.000000000000000E+000
 U1x  =  0.000000000000000E+000
 U1y  =  0.000000000000000E+000
 Phi1 =  0.000000000000000E+000
 U2x  =  0.000000000000000E+000
 U2y  =  0.000000000000000E+000
 Phi2 =  0.000000000000000E+000
 U3x  =  0.000000000000000E+000
 U3y  =  0.000000000000000E+000
 Phi3 =  0.000000000000000E+000
 U4x  =  0.000000000000000E+000
 U4y  =  0.000000000000000E+000
 Phi4 =  0.000000000000000E+000
 ***********************************
 CURRENT ELEMENT NUMBER::::           5
 NUMBER OF NODES:::           4
 DOFs:::           2
 TOTAL DOF OF ELEMENT:::           12
 ************************************
           5
 AREA1  0.000000000000000E+000
 AREA2  0.000000000000000E+000
 U1x  =  0.000000000000000E+000
 U1y  =  0.000000000000000E+000
 Phi1 =  0.000000000000000E+000
 U2x  =  0.000000000000000E+000
 U2y  =  0.000000000000000E+000
 Phi2 =  0.000000000000000E+000
 U3x  =  0.000000000000000E+000
 U3y  =  0.000000000000000E+000
 Phi3 =  0.000000000000000E+000
 U4x  =  0.000000000000000E+000
 U4y  =  0.000000000000000E+000
 Phi4 =  0.000000000000000E+000
 ***********************************
 CURRENT ELEMENT NUMBER::::           6
 NUMBER OF NODES:::           4
 DOFs:::           2
 TOTAL DOF OF ELEMENT:::           12
 ************************************
           6
 AREA1  0.000000000000000E+000
 AREA2  0.000000000000000E+000
 U1x  =  0.000000000000000E+000
 U1y  =  0.000000000000000E+000
 Phi1 =  0.000000000000000E+000
 U2x  =  0.000000000000000E+000
 U2y  =  0.000000000000000E+000
 Phi2 =  0.000000000000000E+000
 U3x  =  0.000000000000000E+000
 U3y  =  0.000000000000000E+000
 Phi3 =  0.000000000000000E+000
 U4x  =  0.000000000000000E+000
 U4y  =  0.000000000000000E+000
 Phi4 =  0.000000000000000E+000
 ***********************************
 CURRENT ELEMENT NUMBER::::           7
 NUMBER OF NODES:::           4
 DOFs:::           2
 TOTAL DOF OF ELEMENT:::           12
 ************************************
           7
 AREA1  0.000000000000000E+000
 AREA2  0.000000000000000E+000
 U1x  =  0.000000000000000E+000
 U1y  =  0.000000000000000E+000
 Phi1 =  0.000000000000000E+000
 U2x  =  0.000000000000000E+000
 U2y  =  0.000000000000000E+000
 Phi2 =  0.000000000000000E+000
 U3x  =  0.000000000000000E+000
 U3y  =  0.000000000000000E+000
 Phi3 =  0.000000000000000E+000
 U4x  =  0.000000000000000E+000
 U4y  =  0.000000000000000E+000
 Phi4 =  0.000000000000000E+000
 ***********************************
 CURRENT ELEMENT NUMBER::::           8
 NUMBER OF NODES:::           4
 DOFs:::           2
 TOTAL DOF OF ELEMENT:::           12
 ************************************
           8
 AREA1  0.000000000000000E+000
 AREA2  0.000000000000000E+000
 U1x  =  0.000000000000000E+000
 U1y  =  0.000000000000000E+000
 Phi1 =  0.000000000000000E+000
 U2x  =  0.000000000000000E+000
 U2y  =  0.000000000000000E+000
 Phi2 =  0.000000000000000E+000
 U3x  =  0.000000000000000E+000
 U3y  =  0.000000000000000E+000
 Phi3 =  0.000000000000000E+000
 U4x  =  0.000000000000000E+000
 U4y  =  0.000000000000000E+000
 Phi4 =  0.000000000000000E+000
 ***********************************
 CURRENT ELEMENT NUMBER::::           9
 NUMBER OF NODES:::           4
 DOFs:::           2
 TOTAL DOF OF ELEMENT:::           12
 ************************************
           9
 AREA1  0.000000000000000E+000
 AREA2  0.000000000000000E+000
 U1x  =  0.000000000000000E+000
 U1y  =  0.000000000000000E+000
 Phi1 =  0.000000000000000E+000
 U2x  =  0.000000000000000E+000
 U2y  =  0.000000000000000E+000
 Phi2 =  0.000000000000000E+000
 U3x  =  0.000000000000000E+000
 U3y  =  0.000000000000000E+000
 Phi3 =  0.000000000000000E+000
 U4x  =  0.000000000000000E+000
 U4y  =  0.000000000000000E+000
 Phi4 =  0.000000000000000E+000
 ***********************************
 CURRENT ELEMENT NUMBER::::          10
 NUMBER OF NODES:::           4
 DOFs:::           2
 TOTAL DOF OF ELEMENT:::           12
 ************************************
          10
 AREA1  0.000000000000000E+000
 AREA2  0.000000000000000E+000
 U1x  =  0.000000000000000E+000
 U1y  =  0.000000000000000E+000
 Phi1 =  0.000000000000000E+000
 U2x  =  0.000000000000000E+000
 U2y  =  0.000000000000000E+000
 Phi2 =  0.000000000000000E+000
 U3x  =  0.000000000000000E+000
 U3y  =  0.000000000000000E+000
 Phi3 =  0.000000000000000E+000
 U4x  =  0.000000000000000E+000
 U4y  =  0.000000000000000E+000
 Phi4 =  0.000000000000000E+000
 ***********************************
 CURRENT ELEMENT NUMBER::::          11
 NUMBER OF NODES:::           4
 DOFs:::           2
 TOTAL DOF OF ELEMENT:::           12
 ************************************
          11
 AREA1  0.000000000000000E+000
 AREA2  0.000000000000000E+000
 U1x  =  0.000000000000000E+000
 U1y  =  0.000000000000000E+000
 Phi1 =  0.000000000000000E+000
 U2x  =  0.000000000000000E+000
 U2y  =  0.000000000000000E+000
 Phi2 =  0.000000000000000E+000
 U3x  =  0.000000000000000E+000
 U3y  =  0.000000000000000E+000
 Phi3 =  0.000000000000000E+000
 U4x  =  0.000000000000000E+000
 U4y  =  0.000000000000000E+000
 Phi4 =  0.000000000000000E+000
 ***********************************
 CURRENT ELEMENT NUMBER::::          12
 NUMBER OF NODES:::           4
 DOFs:::           2
 TOTAL DOF OF ELEMENT:::           12
 ************************************
          12
 AREA1  0.000000000000000E+000
 AREA2  0.000000000000000E+000
 U1x  =  0.000000000000000E+000
 U1y  =  0.000000000000000E+000
 Phi1 =  0.000000000000000E+000
 U2x  =  0.000000000000000E+000
 U2y  =  0.000000000000000E+000
 Phi2 =  0.000000000000000E+000
 U3x  =  0.000000000000000E+000
 U3y  =  0.000000000000000E+000
 Phi3 =  0.000000000000000E+000
 U4x  =  0.000000000000000E+000
 U4y  =  0.000000000000000E+000
 Phi4 =  0.000000000000000E+000
 ***********************************
 CURRENT ELEMENT NUMBER::::          13
 NUMBER OF NODES:::           4
 DOFs:::           2
 TOTAL DOF OF ELEMENT:::           12
 ************************************
          13
 AREA1  0.000000000000000E+000
 AREA2  0.000000000000000E+000
 U1x  =  0.000000000000000E+000
 U1y  =  0.000000000000000E+000
 Phi1 =  0.000000000000000E+000
 U2x  =  0.000000000000000E+000
 U2y  =  0.000000000000000E+000
 Phi2 =  0.000000000000000E+000
 U3x  =  0.000000000000000E+000
 U3y  =  0.000000000000000E+000
 Phi3 =  0.000000000000000E+000
 U4x  =  0.000000000000000E+000
 U4y  =  0.000000000000000E+000
 Phi4 =  0.000000000000000E+000
 ***********************************
 CURRENT ELEMENT NUMBER::::          14
 NUMBER OF NODES:::           4
 DOFs:::           2
 TOTAL DOF OF ELEMENT:::           12
 ************************************
          14
 AREA1  0.000000000000000E+000
 AREA2  0.000000000000000E+000
 U1x  =  0.000000000000000E+000
 U1y  =  0.000000000000000E+000
 Phi1 =  0.000000000000000E+000
 U2x  =  0.000000000000000E+000
 U2y  =  0.000000000000000E+000
 Phi2 =  0.000000000000000E+000
 U3x  =  0.000000000000000E+000
 U3y  =  0.000000000000000E+000
 Phi3 =  0.000000000000000E+000
 U4x  =  0.000000000000000E+000
 U4y  =  0.000000000000000E+000
 Phi4 =  0.000000000000000E+000
 ***********************************
 CURRENT ELEMENT NUMBER::::          15
 NUMBER OF NODES:::           4
 DOFs:::           2
 TOTAL DOF OF ELEMENT:::           12
 ************************************
          15
 AREA1  0.000000000000000E+000
 AREA2  0.000000000000000E+000
 U1x  =  0.000000000000000E+000
 U1y  =  0.000000000000000E+000
 Phi1 =  0.000000000000000E+000
 U2x  =  0.000000000000000E+000
 U2y  =  0.000000000000000E+000
 Phi2 =  0.000000000000000E+000
 U3x  =  0.000000000000000E+000
 U3y  =  0.000000000000000E+000
 Phi3 =  0.000000000000000E+000
 U4x  =  0.000000000000000E+000
 U4y  =  0.000000000000000E+000
 Phi4 =  0.000000000000000E+000
 ***********************************
 CURRENT ELEMENT NUMBER::::          16
 NUMBER OF NODES:::           4
 DOFs:::           2
 TOTAL DOF OF ELEMENT:::           12
 ************************************
          16
 AREA1  0.000000000000000E+000
 AREA2  0.000000000000000E+000
 U1x  =  0.000000000000000E+000
 U1y  =  0.000000000000000E+000
 Phi1 =  0.000000000000000E+000
 U2x  =  0.000000000000000E+000
 U2y  =  0.000000000000000E+000
 Phi2 =  0.000000000000000E+000
 U3x  =  0.000000000000000E+000
 U3y  =  0.000000000000000E+000
 Phi3 =  0.000000000000000E+000
 U4x  =  0.000000000000000E+000
 U4y  =  0.000000000000000E+000
 Phi4 =  0.000000000000000E+000
 ***********************************
 CURRENT ELEMENT NUMBER::::          17
 NUMBER OF NODES:::           4
 DOFs:::           2
 TOTAL DOF OF ELEMENT:::           12
 ************************************
          17
 AREA1  0.000000000000000E+000
 AREA2  0.000000000000000E+000
 U1x  =  0.000000000000000E+000
 U1y  =  0.000000000000000E+000
 Phi1 =  0.000000000000000E+000
 U2x  =  0.000000000000000E+000
 U2y  =  0.000000000000000E+000
 Phi2 =  0.000000000000000E+000
 U3x  =  0.000000000000000E+000
 U3y  =  0.000000000000000E+000
 Phi3 =  0.000000000000000E+000
 U4x  =  0.000000000000000E+000
 U4y  =  0.000000000000000E+000
 Phi4 =  0.000000000000000E+000
 ***********************************
 CURRENT ELEMENT NUMBER::::          18
 NUMBER OF NODES:::           4
 DOFs:::           2
 TOTAL DOF OF ELEMENT:::           12
 ************************************
          18
 AREA1  0.000000000000000E+000
 AREA2  0.000000000000000E+000
 U1x  =  0.000000000000000E+000
 U1y  =  0.000000000000000E+000
 Phi1 =  0.000000000000000E+000
 U2x  =  0.000000000000000E+000
 U2y  =  0.000000000000000E+000
 Phi2 =  0.000000000000000E+000
 U3x  =  0.000000000000000E+000
 U3y  =  0.000000000000000E+000
 Phi3 =  0.000000000000000E+000
 U4x  =  0.000000000000000E+000
 U4y  =  0.000000000000000E+000
 Phi4 =  0.000000000000000E+000
 ***********************************
 CURRENT ELEMENT NUMBER::::          19
 NUMBER OF NODES:::           4
 DOFs:::           2
 TOTAL DOF OF ELEMENT:::           12
 ************************************
          19
 AREA1  0.000000000000000E+000
 AREA2  0.000000000000000E+000
 U1x  =  0.000000000000000E+000
 U1y  =  0.000000000000000E+000
 Phi1 =  0.000000000000000E+000
 U2x  =  0.000000000000000E+000
 U2y  =  0.000000000000000E+000
 Phi2 =  0.000000000000000E+000
 U3x  =  0.000000000000000E+000
 U3y  =  0.000000000000000E+000
 Phi3 =  0.000000000000000E+000
 U4x  =  0.000000000000000E+000
 U4y  =  0.000000000000000E+000
 Phi4 =  0.000000000000000E+000
 ***********************************
 CURRENT ELEMENT NUMBER::::          20
 NUMBER OF NODES:::           4
 DOFs:::           2
 TOTAL DOF OF ELEMENT:::           12
 ************************************
          20
 AREA1  0.000000000000000E+000
 AREA2  0.000000000000000E+000
 U1x  =  0.000000000000000E+000
 U1y  =  0.000000000000000E+000
 Phi1 =  0.000000000000000E+000
 U2x  =  0.000000000000000E+000
 U2y  =  0.000000000000000E+000
 Phi2 =  0.000000000000000E+000
 U3x  =  0.000000000000000E+000
 U3y  =  0.000000000000000E+000
 Phi3 =  0.000000000000000E+000
 U4x  =  0.000000000000000E+000
 U4y  =  0.000000000000000E+000
 Phi4 =  0.000000000000000E+000
 ***********************************
 CURRENT ELEMENT NUMBER::::          21
 NUMBER OF NODES:::           4
 DOFs:::           2
 TOTAL DOF OF ELEMENT:::           12
 ************************************
          21
 AREA1  0.000000000000000E+000
 AREA2  0.000000000000000E+000
 U1x  =  0.000000000000000E+000
 U1y  =  0.000000000000000E+000
 Phi1 =  0.000000000000000E+000
 U2x  =  0.000000000000000E+000
 U2y  =  0.000000000000000E+000
 Phi2 =  0.000000000000000E+000
 U3x  =  0.000000000000000E+000
 U3y  =  0.000000000000000E+000
 Phi3 =  0.000000000000000E+000
 U4x  =  0.000000000000000E+000
 U4y  =  0.000000000000000E+000
 Phi4 =  0.000000000000000E+000
 ***********************************
 CURRENT ELEMENT NUMBER::::          22
 NUMBER OF NODES:::           4
 DOFs:::           2
 TOTAL DOF OF ELEMENT:::           12
 ************************************
          22
 AREA1  0.000000000000000E+000
 AREA2  0.000000000000000E+000
 U1x  =  0.000000000000000E+000
 U1y  =  0.000000000000000E+000
 Phi1 =  0.000000000000000E+000
 U2x  =  0.000000000000000E+000
 U2y  =  0.000000000000000E+000
 Phi2 =  0.000000000000000E+000
 U3x  =  0.000000000000000E+000
 U3y  =  0.000000000000000E+000
 Phi3 =  0.000000000000000E+000
 U4x  =  0.000000000000000E+000
 U4y  =  0.000000000000000E+000
 Phi4 =  0.000000000000000E+000
 ***********************************
 CURRENT ELEMENT NUMBER::::          23
 NUMBER OF NODES:::           4
 DOFs:::           2
 TOTAL DOF OF ELEMENT:::           12
 ************************************
          23
 AREA1  0.000000000000000E+000
 AREA2  0.000000000000000E+000
 U1x  =  0.000000000000000E+000
 U1y  =  0.000000000000000E+000
 Phi1 =  0.000000000000000E+000
 U2x  =  0.000000000000000E+000
 U2y  =  0.000000000000000E+000
 Phi2 =  0.000000000000000E+000
 U3x  =  0.000000000000000E+000
 U3y  =  0.000000000000000E+000
 Phi3 =  0.000000000000000E+000
 U4x  =  0.000000000000000E+000
 U4y  =  0.000000000000000E+000
 Phi4 =  0.000000000000000E+000
 ***********************************
 CURRENT ELEMENT NUMBER::::          24
 NUMBER OF NODES:::           4
 DOFs:::           2
 TOTAL DOF OF ELEMENT:::           12
 ************************************
          24
 AREA1  0.000000000000000E+000
 AREA2  0.000000000000000E+000
 U1x  =  0.000000000000000E+000
 U1y  =  0.000000000000000E+000
 Phi1 =  0.000000000000000E+000
 U2x  =  0.000000000000000E+000
 U2y  =  0.000000000000000E+000
 Phi2 =  0.000000000000000E+000
 U3x  =  0.000000000000000E+000
 U3y  =  0.000000000000000E+000
 Phi3 =  0.000000000000000E+000
 U4x  =  0.000000000000000E+000
 U4y  =  0.000000000000000E+000
 Phi4 =  0.000000000000000E+000
 ***********************************
 CURRENT ELEMENT NUMBER::::          25
 NUMBER OF NODES:::           4
 DOFs:::           2
 TOTAL DOF OF ELEMENT:::           12
 ************************************
          25
 AREA1  0.000000000000000E+000
 AREA2  0.000000000000000E+000
 U1x  =  0.000000000000000E+000
 U1y  =  0.000000000000000E+000
 Phi1 =  0.000000000000000E+000
 U2x  =  0.000000000000000E+000
 U2y  =  0.000000000000000E+000
 Phi2 =  0.000000000000000E+000
 U3x  =  0.000000000000000E+000
 U3y  =  0.000000000000000E+000
 Phi3 =  0.000000000000000E+000
 U4x  =  0.000000000000000E+000
 U4y  =  0.000000000000000E+000
 Phi4 =  0.000000000000000E+000
 ***********************************
 CURRENT ELEMENT NUMBER::::          26
 NUMBER OF NODES:::           4
 DOFs:::           2
 TOTAL DOF OF ELEMENT:::           12
 ************************************
          26
 AREA1  0.000000000000000E+000
 AREA2  0.000000000000000E+000
 U1x  =  0.000000000000000E+000
 U1y  =  0.000000000000000E+000
 Phi1 =  0.000000000000000E+000
 U2x  =  0.000000000000000E+000
 U2y  =  0.000000000000000E+000
 Phi2 =  0.000000000000000E+000
 U3x  =  0.000000000000000E+000
 U3y  =  0.000000000000000E+000
 Phi3 =  0.000000000000000E+000
 U4x  =  0.000000000000000E+000
 U4y  =  0.000000000000000E+000
 Phi4 =  0.000000000000000E+000
 ***********************************
 CURRENT ELEMENT NUMBER::::          27
 NUMBER OF NODES:::           4
 DOFs:::           2
 TOTAL DOF OF ELEMENT:::           12
 ************************************
          27
 AREA1  0.000000000000000E+000
 AREA2  0.000000000000000E+000
 U1x  =  0.000000000000000E+000
 U1y  =  0.000000000000000E+000
 Phi1 =  0.000000000000000E+000
 U2x  =  0.000000000000000E+000
 U2y  =  0.000000000000000E+000
 Phi2 =  0.000000000000000E+000
 U3x  =  0.000000000000000E+000
 U3y  =  0.000000000000000E+000
 Phi3 =  0.000000000000000E+000
 U4x  =  0.000000000000000E+000
 U4y  =  0.000000000000000E+000
 Phi4 =  0.000000000000000E+000
 ***********************************
 CURRENT ELEMENT NUMBER::::          28
 NUMBER OF NODES:::           4
 DOFs:::           2
 TOTAL DOF OF ELEMENT:::           12
 ************************************
          28
 AREA1  0.000000000000000E+000
 AREA2  0.000000000000000E+000
 U1x  =  0.000000000000000E+000
 U1y  =  0.000000000000000E+000
 Phi1 =  0.000000000000000E+000
 U2x  =  0.000000000000000E+000
 U2y  =  0.000000000000000E+000
 Phi2 =  0.000000000000000E+000
 U3x  =  0.000000000000000E+000
 U3y  =  0.000000000000000E+000
 Phi3 =  0.000000000000000E+000
 U4x  =  0.000000000000000E+000
 U4y  =  0.000000000000000E+000
 Phi4 =  0.000000000000000E+000
 ***********************************
 CURRENT ELEMENT NUMBER::::          29
 NUMBER OF NODES:::           4
 DOFs:::           2
 TOTAL DOF OF ELEMENT:::           12
 ************************************
          29
 AREA1  0.000000000000000E+000
 AREA2  0.000000000000000E+000
 U1x  =  0.000000000000000E+000
 U1y  =  0.000000000000000E+000
 Phi1 =  0.000000000000000E+000
 U2x  =  0.000000000000000E+000
 U2y  =  0.000000000000000E+000
 Phi2 =  0.000000000000000E+000
 U3x  =  0.000000000000000E+000
 U3y  =  0.000000000000000E+000
 Phi3 =  0.000000000000000E+000
 U4x  =  0.000000000000000E+000
 U4y  =  0.000000000000000E+000
 Phi4 =  0.000000000000000E+000
 ***********************************
 CURRENT ELEMENT NUMBER::::          30
 NUMBER OF NODES:::           4
 DOFs:::           2
 TOTAL DOF OF ELEMENT:::           12
 ************************************
          30
 AREA1  0.000000000000000E+000
 AREA2  0.000000000000000E+000
 U1x  =  0.000000000000000E+000
 U1y  =  0.000000000000000E+000
 Phi1 =  0.000000000000000E+000
 U2x  =  0.000000000000000E+000
 U2y  =  0.000000000000000E+000
 Phi2 =  0.000000000000000E+000
 U3x  =  0.000000000000000E+000
 U3y  =  0.000000000000000E+000
 Phi3 =  0.000000000000000E+000
 U4x  =  0.000000000000000E+000
 U4y  =  0.000000000000000E+000
 Phi4 =  0.000000000000000E+000
 ***********************************
 CURRENT ELEMENT NUMBER::::          31
 NUMBER OF NODES:::           4
 DOFs:::           2
 TOTAL DOF OF ELEMENT:::           12
 ************************************
          31
 AREA1  0.000000000000000E+000
 AREA2  0.000000000000000E+000
 U1x  =  0.000000000000000E+000
 U1y  =  0.000000000000000E+000
 Phi1 =  0.000000000000000E+000
 U2x  =  0.000000000000000E+000
 U2y  =  0.000000000000000E+000
 Phi2 =  0.000000000000000E+000
 U3x  =  0.000000000000000E+000
 U3y  =  0.000000000000000E+000
 Phi3 =  0.000000000000000E+000
 U4x  =  0.000000000000000E+000
 U4y  =  0.000000000000000E+000
 Phi4 =  0.000000000000000E+000
 ***********************************
 CURRENT ELEMENT NUMBER::::          32
 NUMBER OF NODES:::           4
 DOFs:::           2
 TOTAL DOF OF ELEMENT:::           12
 ************************************
          32
 AREA1  0.000000000000000E+000
 AREA2  0.000000000000000E+000
 U1x  =  0.000000000000000E+000
 U1y  =  0.000000000000000E+000
 Phi1 =  0.000000000000000E+000
 U2x  =  0.000000000000000E+000
 U2y  =  0.000000000000000E+000
 Phi2 =  0.000000000000000E+000
 U3x  =  0.000000000000000E+000
 U3y  =  0.000000000000000E+000
 Phi3 =  0.000000000000000E+000
 U4x  =  0.000000000000000E+000
 U4y  =  0.000000000000000E+000
 Phi4 =  0.000000000000000E+000
 ***********************************
 CURRENT ELEMENT NUMBER::::          33
 NUMBER OF NODES:::           4
 DOFs:::           2
 TOTAL DOF OF ELEMENT:::           12
 ************************************
          33
 AREA1  0.000000000000000E+000
 AREA2  0.000000000000000E+000
 U1x  =  0.000000000000000E+000
 U1y  =  0.000000000000000E+000
 Phi1 =  0.000000000000000E+000
 U2x  =  0.000000000000000E+000
 U2y  =  0.000000000000000E+000
 Phi2 =  0.000000000000000E+000
 U3x  =  0.000000000000000E+000
 U3y  =  0.000000000000000E+000
 Phi3 =  0.000000000000000E+000
 U4x  =  0.000000000000000E+000
 U4y  =  0.000000000000000E+000
 Phi4 =  0.000000000000000E+000
 ***********************************
 CURRENT ELEMENT NUMBER::::          34
 NUMBER OF NODES:::           4
 DOFs:::           2
 TOTAL DOF OF ELEMENT:::           12
 ************************************
          34
 AREA1  0.000000000000000E+000
 AREA2  0.000000000000000E+000
 U1x  =  0.000000000000000E+000
 U1y  =  0.000000000000000E+000
 Phi1 =  0.000000000000000E+000
 U2x  =  0.000000000000000E+000
 U2y  =  0.000000000000000E+000
 Phi2 =  0.000000000000000E+000
 U3x  =  0.000000000000000E+000
 U3y  =  0.000000000000000E+000
 Phi3 =  0.000000000000000E+000
 U4x  =  0.000000000000000E+000
 U4y  =  0.000000000000000E+000
 Phi4 =  0.000000000000000E+000
 ***********************************
 CURRENT ELEMENT NUMBER::::          35
 NUMBER OF NODES:::           4
 DOFs:::           2
 TOTAL DOF OF ELEMENT:::           12
 ************************************
          35
 AREA1  0.000000000000000E+000
 AREA2  0.000000000000000E+000
 U1x  =  0.000000000000000E+000
 U1y  =  0.000000000000000E+000
 Phi1 =  0.000000000000000E+000
 U2x  =  0.000000000000000E+000
 U2y  =  0.000000000000000E+000
 Phi2 =  0.000000000000000E+000
 U3x  =  0.000000000000000E+000
 U3y  =  0.000000000000000E+000
 Phi3 =  0.000000000000000E+000
 U4x  =  0.000000000000000E+000
 U4y  =  0.000000000000000E+000
 Phi4 =  0.000000000000000E+000
 ***********************************
 CURRENT ELEMENT NUMBER::::          36
 NUMBER OF NODES:::           4
 DOFs:::           2
 TOTAL DOF OF ELEMENT:::           12
 ************************************
          36
 AREA1  0.000000000000000E+000
 AREA2  0.000000000000000E+000
 U1x  =  0.000000000000000E+000
 U1y  =  0.000000000000000E+000
 Phi1 =  0.000000000000000E+000
 U2x  =  0.000000000000000E+000
 U2y  =  0.000000000000000E+000
 Phi2 =  0.000000000000000E+000
 U3x  =  0.000000000000000E+000
 U3y  =  0.000000000000000E+000
 Phi3 =  0.000000000000000E+000
 U4x  =  0.000000000000000E+000
 U4y  =  0.000000000000000E+000
 Phi4 =  0.000000000000000E+000
 ***********************************
 CURRENT ELEMENT NUMBER::::          37
 NUMBER OF NODES:::           4
 DOFs:::           2
 TOTAL DOF OF ELEMENT:::           12
 ************************************
          37
 AREA1  0.000000000000000E+000
 AREA2  0.000000000000000E+000
 U1x  =  0.000000000000000E+000
 U1y  =  0.000000000000000E+000
 Phi1 =  0.000000000000000E+000
 U2x  =  0.000000000000000E+000
 U2y  =  0.000000000000000E+000
 Phi2 =  0.000000000000000E+000
 U3x  =  0.000000000000000E+000
 U3y  =  0.000000000000000E+000
 Phi3 =  0.000000000000000E+000
 U4x  =  0.000000000000000E+000
 U4y  =  0.000000000000000E+000
 Phi4 =  0.000000000000000E+000
 ***********************************
 CURRENT ELEMENT NUMBER::::          38
 NUMBER OF NODES:::           4
 DOFs:::           2
 TOTAL DOF OF ELEMENT:::           12
 ************************************
          38
 AREA1  0.000000000000000E+000
 AREA2  0.000000000000000E+000
 U1x  =  0.000000000000000E+000
 U1y  =  0.000000000000000E+000
 Phi1 =  0.000000000000000E+000
 U2x  =  0.000000000000000E+000
 U2y  =  0.000000000000000E+000
 Phi2 =  0.000000000000000E+000
 U3x  =  0.000000000000000E+000
 U3y  =  0.000000000000000E+000
 Phi3 =  0.000000000000000E+000
 U4x  =  0.000000000000000E+000
 U4y  =  0.000000000000000E+000
 Phi4 =  0.000000000000000E+000
 ***********************************
 CURRENT ELEMENT NUMBER::::          39
 NUMBER OF NODES:::           4
 DOFs:::           2
 TOTAL DOF OF ELEMENT:::           12
 ************************************
          39
 AREA1  0.000000000000000E+000
 AREA2  0.000000000000000E+000
 U1x  =  0.000000000000000E+000
 U1y  =  0.000000000000000E+000
 Phi1 =  0.000000000000000E+000
 U2x  =  0.000000000000000E+000
 U2y  =  0.000000000000000E+000
 Phi2 =  0.000000000000000E+000
 U3x  =  0.000000000000000E+000
 U3y  =  0.000000000000000E+000
 Phi3 =  0.000000000000000E+000
 U4x  =  0.000000000000000E+000
 U4y  =  0.000000000000000E+000
 Phi4 =  0.000000000000000E+000
 ***********************************
 CURRENT ELEMENT NUMBER::::          40
 NUMBER OF NODES:::           4
 DOFs:::           2
 TOTAL DOF OF ELEMENT:::           12
 ************************************
          40
 AREA1  0.000000000000000E+000
 AREA2  0.000000000000000E+000
 U1x  =  0.000000000000000E+000
 U1y  =  0.000000000000000E+000
 Phi1 =  0.000000000000000E+000
 U2x  =  0.000000000000000E+000
 U2y  =  0.000000000000000E+000
 Phi2 =  0.000000000000000E+000
 U3x  =  0.000000000000000E+000
 U3y  =  0.000000000000000E+000
 Phi3 =  0.000000000000000E+000
 U4x  =  0.000000000000000E+000
 U4y  =  0.000000000000000E+000
 Phi4 =  0.000000000000000E+000
 ***********************************
 CURRENT ELEMENT NUMBER::::          41
 NUMBER OF NODES:::           4
 DOFs:::           2
 TOTAL DOF OF ELEMENT:::           12
 ************************************
          41
 AREA1  0.000000000000000E+000
 AREA2  0.000000000000000E+000
 U1x  =  0.000000000000000E+000
 U1y  =  0.000000000000000E+000
 Phi1 =  0.000000000000000E+000
 U2x  =  0.000000000000000E+000
 U2y  =  0.000000000000000E+000
 Phi2 =  0.000000000000000E+000
 U3x  =  0.000000000000000E+000
 U3y  =  0.000000000000000E+000
 Phi3 =  0.000000000000000E+000
 U4x  =  0.000000000000000E+000
 U4y  =  0.000000000000000E+000
 Phi4 =  0.000000000000000E+000
 ***********************************
 CURRENT ELEMENT NUMBER::::          42
 NUMBER OF NODES:::           4
 DOFs:::           2
 TOTAL DOF OF ELEMENT:::           12
 ************************************
          42
 AREA1  0.000000000000000E+000
 AREA2  0.000000000000000E+000
 U1x  =  0.000000000000000E+000
 U1y  =  0.000000000000000E+000
 Phi1 =  0.000000000000000E+000
 U2x  =  0.000000000000000E+000
 U2y  =  0.000000000000000E+000
 Phi2 =  0.000000000000000E+000
 U3x  =  0.000000000000000E+000
 U3y  =  0.000000000000000E+000
 Phi3 =  0.000000000000000E+000
 U4x  =  0.000000000000000E+000
 U4y  =  0.000000000000000E+000
 Phi4 =  0.000000000000000E+000
 ***********************************
 CURRENT ELEMENT NUMBER::::          43
 NUMBER OF NODES:::           4
 DOFs:::           2
 TOTAL DOF OF ELEMENT:::           12
 ************************************
          43
 AREA1  0.000000000000000E+000
 AREA2  0.000000000000000E+000
 U1x  =  0.000000000000000E+000
 U1y  =  0.000000000000000E+000
 Phi1 =  0.000000000000000E+000
 U2x  =  0.000000000000000E+000
 U2y  =  0.000000000000000E+000
 Phi2 =  0.000000000000000E+000
 U3x  =  0.000000000000000E+000
 U3y  =  0.000000000000000E+000
 Phi3 =  0.000000000000000E+000
 U4x  =  0.000000000000000E+000
 U4y  =  0.000000000000000E+000
 Phi4 =  0.000000000000000E+000
 ***********************************
 CURRENT ELEMENT NUMBER::::          44
 NUMBER OF NODES:::           4
 DOFs:::           2
 TOTAL DOF OF ELEMENT:::           12
 ************************************
          44
 AREA1  0.000000000000000E+000
 AREA2  0.000000000000000E+000
 U1x  =  0.000000000000000E+000
 U1y  =  0.000000000000000E+000
 Phi1 =  0.000000000000000E+000
 U2x  =  0.000000000000000E+000
 U2y  =  0.000000000000000E+000
 Phi2 =  0.000000000000000E+000
 U3x  =  0.000000000000000E+000
 U3y  =  0.000000000000000E+000
 Phi3 =  0.000000000000000E+000
 U4x  =  0.000000000000000E+000
 U4y  =  0.000000000000000E+000
 Phi4 =  0.000000000000000E+000
 ***********************************
 CURRENT ELEMENT NUMBER::::          45
 NUMBER OF NODES:::           4
 DOFs:::           2
 TOTAL DOF OF ELEMENT:::           12
 ************************************
          45
 AREA1  0.000000000000000E+000
 AREA2  0.000000000000000E+000
 U1x  =  0.000000000000000E+000
 U1y  =  0.000000000000000E+000
 Phi1 =  0.000000000000000E+000
 U2x  =  0.000000000000000E+000
 U2y  =  0.000000000000000E+000
 Phi2 =  0.000000000000000E+000
 U3x  =  0.000000000000000E+000
 U3y  =  0.000000000000000E+000
 Phi3 =  0.000000000000000E+000
 U4x  =  0.000000000000000E+000
 U4y  =  0.000000000000000E+000
 Phi4 =  0.000000000000000E+000
 ***********************************
 CURRENT ELEMENT NUMBER::::          46
 NUMBER OF NODES:::           4
 DOFs:::           2
 TOTAL DOF OF ELEMENT:::           12
 ************************************
          46
 AREA1  0.000000000000000E+000
 AREA2  0.000000000000000E+000
 U1x  =  0.000000000000000E+000
 U1y  =  0.000000000000000E+000
 Phi1 =  0.000000000000000E+000
 U2x  =  0.000000000000000E+000
 U2y  =  0.000000000000000E+000
 Phi2 =  0.000000000000000E+000
 U3x  =  0.000000000000000E+000
 U3y  =  0.000000000000000E+000
 Phi3 =  0.000000000000000E+000
 U4x  =  0.000000000000000E+000
 U4y  =  0.000000000000000E+000
 Phi4 =  0.000000000000000E+000
 ***********************************
 CURRENT ELEMENT NUMBER::::          47
 NUMBER OF NODES:::           4
 DOFs:::           2
 TOTAL DOF OF ELEMENT:::           12
 ************************************
          47
 AREA1  0.000000000000000E+000
 AREA2  0.000000000000000E+000
 U1x  =  0.000000000000000E+000
 U1y  =  0.000000000000000E+000
 Phi1 =  0.000000000000000E+000
 U2x  =  0.000000000000000E+000
 U2y  =  0.000000000000000E+000
 Phi2 =  0.000000000000000E+000
 U3x  =  0.000000000000000E+000
 U3y  =  0.000000000000000E+000
 Phi3 =  0.000000000000000E+000
 U4x  =  0.000000000000000E+000
 U4y  =  0.000000000000000E+000
 Phi4 =  0.000000000000000E+000
 ***********************************
 CURRENT ELEMENT NUMBER::::          48
 NUMBER OF NODES:::           4
 DOFs:::           2
 TOTAL DOF OF ELEMENT:::           12
 ************************************
          48
 AREA1  0.000000000000000E+000
 AREA2  0.000000000000000E+000
 U1x  =  0.000000000000000E+000
 U1y  =  0.000000000000000E+000
 Phi1 =  0.000000000000000E+000
 U2x  =  0.000000000000000E+000
 U2y  =  0.000000000000000E+000
 Phi2 =  0.000000000000000E+000
 U3x  =  0.000000000000000E+000
 U3y  =  0.000000000000000E+000
 Phi3 =  0.000000000000000E+000
 U4x  =  0.000000000000000E+000
 U4y  =  0.000000000000000E+000
 Phi4 =  0.000000000000000E+000
 ***********************************
 CURRENT ELEMENT NUMBER::::          49
 NUMBER OF NODES:::           4
 DOFs:::           2
 TOTAL DOF OF ELEMENT:::           12
 ************************************
          49
 AREA1  0.000000000000000E+000
 AREA2  0.000000000000000E+000
 U1x  =  0.000000000000000E+000
 U1y  =  0.000000000000000E+000
 Phi1 =  0.000000000000000E+000
 U2x  =  0.000000000000000E+000
 U2y  =  0.000000000000000E+000
 Phi2 =  0.000000000000000E+000
 U3x  =  0.000000000000000E+000
 U3y  =  0.000000000000000E+000
 Phi3 =  0.000000000000000E+000
 U4x  =  0.000000000000000E+000
 U4y  =  0.000000000000000E+000
 Phi4 =  0.000000000000000E+000
 ***********************************
 CURRENT ELEMENT NUMBER::::          50
 NUMBER OF NODES:::           4
 DOFs:::           2
 TOTAL DOF OF ELEMENT:::           12
 ************************************
          50
 AREA1  0.000000000000000E+000
 AREA2  0.000000000000000E+000
 U1x  =  0.000000000000000E+000
 U1y  =  0.000000000000000E+000
 Phi1 =  0.000000000000000E+000
 U2x  =  0.000000000000000E+000
 U2y  =  0.000000000000000E+000
 Phi2 =  0.000000000000000E+000
 U3x  =  0.000000000000000E+000
 U3y  =  0.000000000000000E+000
 Phi3 =  0.000000000000000E+000
 U4x  =  0.000000000000000E+000
 U4y  =  0.000000000000000E+000
 Phi4 =  0.000000000000000E+000
 ***********************************
 CURRENT ELEMENT NUMBER::::          51
 NUMBER OF NODES:::           4
 DOFs:::           2
 TOTAL DOF OF ELEMENT:::           12
 ************************************
          51
 AREA1  0.000000000000000E+000
 AREA2  0.000000000000000E+000
 U1x  =  0.000000000000000E+000
 U1y  =  0.000000000000000E+000
 Phi1 =  0.000000000000000E+000
 U2x  =  0.000000000000000E+000
 U2y  =  0.000000000000000E+000
 Phi2 =  0.000000000000000E+000
 U3x  =  0.000000000000000E+000
 U3y  =  0.000000000000000E+000
 Phi3 =  0.000000000000000E+000
 U4x  =  0.000000000000000E+000
 U4y  =  0.000000000000000E+000
 Phi4 =  0.000000000000000E+000
 ***********************************
 CURRENT ELEMENT NUMBER::::          52
 NUMBER OF NODES:::           4
 DOFs:::           2
 TOTAL DOF OF ELEMENT:::           12
 ************************************
          52
 AREA1  0.000000000000000E+000
 AREA2  0.000000000000000E+000
 U1x  =  0.000000000000000E+000
 U1y  =  0.000000000000000E+000
 Phi1 =  0.000000000000000E+000
 U2x  =  0.000000000000000E+000
 U2y  =  0.000000000000000E+000
 Phi2 =  0.000000000000000E+000
 U3x  =  0.000000000000000E+000
 U3y  =  0.000000000000000E+000
 Phi3 =  0.000000000000000E+000
 U4x  =  0.000000000000000E+000
 U4y  =  0.000000000000000E+000
 Phi4 =  0.000000000000000E+000
 ***********************************
 CURRENT ELEMENT NUMBER::::          53
 NUMBER OF NODES:::           4
 DOFs:::           2
 TOTAL DOF OF ELEMENT:::           12
 ************************************
          53
 AREA1  0.000000000000000E+000
 AREA2  0.000000000000000E+000
 U1x  =  0.000000000000000E+000
 U1y  =  0.000000000000000E+000
 Phi1 =  0.000000000000000E+000
 U2x  =  0.000000000000000E+000
 U2y  =  0.000000000000000E+000
 Phi2 =  0.000000000000000E+000
 U3x  =  0.000000000000000E+000
 U3y  =  0.000000000000000E+000
 Phi3 =  0.000000000000000E+000
 U4x  =  0.000000000000000E+000
 U4y  =  0.000000000000000E+000
 Phi4 =  0.000000000000000E+000
 ***********************************
 CURRENT ELEMENT NUMBER::::          54
 NUMBER OF NODES:::           4
 DOFs:::           2
 TOTAL DOF OF ELEMENT:::           12
 ************************************
          54
 AREA1  0.000000000000000E+000
 AREA2  0.000000000000000E+000
 U1x  =  0.000000000000000E+000
 U1y  =  0.000000000000000E+000
 Phi1 =  0.000000000000000E+000
 U2x  =  0.000000000000000E+000
 U2y  =  0.000000000000000E+000
 Phi2 =  0.000000000000000E+000
 U3x  =  0.000000000000000E+000
 U3y  =  0.000000000000000E+000
 Phi3 =  0.000000000000000E+000
 U4x  =  0.000000000000000E+000
 U4y  =  0.000000000000000E+000
 Phi4 =  0.000000000000000E+000
 ***********************************
 CURRENT ELEMENT NUMBER::::          55
 NUMBER OF NODES:::           4
 DOFs:::           2
 TOTAL DOF OF ELEMENT:::           12
 ************************************
          55
 AREA1  0.000000000000000E+000
 AREA2  0.000000000000000E+000
 U1x  =  0.000000000000000E+000
 U1y  =  0.000000000000000E+000
 Phi1 =  0.000000000000000E+000
 U2x  =  0.000000000000000E+000
 U2y  =  0.000000000000000E+000
 Phi2 =  0.000000000000000E+000
 U3x  =  0.000000000000000E+000
 U3y  =  0.000000000000000E+000
 Phi3 =  0.000000000000000E+000
 U4x  =  0.000000000000000E+000
 U4y  =  0.000000000000000E+000
 Phi4 =  0.000000000000000E+000
 ***********************************
 CURRENT ELEMENT NUMBER::::          56
 NUMBER OF NODES:::           4
 DOFs:::           2
 TOTAL DOF OF ELEMENT:::           12
 ************************************
          56
 AREA1  0.000000000000000E+000
 AREA2  0.000000000000000E+000
 U1x  =  0.000000000000000E+000
 U1y  =  0.000000000000000E+000
 Phi1 =  0.000000000000000E+000
 U2x  =  0.000000000000000E+000
 U2y  =  0.000000000000000E+000
 Phi2 =  0.000000000000000E+000
 U3x  =  0.000000000000000E+000
 U3y  =  0.000000000000000E+000
 Phi3 =  0.000000000000000E+000
 U4x  =  0.000000000000000E+000
 U4y  =  0.000000000000000E+000
 Phi4 =  0.000000000000000E+000
 ***********************************
 CURRENT ELEMENT NUMBER::::          57
 NUMBER OF NODES:::           4
 DOFs:::           2
 TOTAL DOF OF ELEMENT:::           12
 ************************************
          57
 AREA1  0.000000000000000E+000
 AREA2  0.000000000000000E+000
 U1x  =  0.000000000000000E+000
 U1y  =  0.000000000000000E+000
 Phi1 =  0.000000000000000E+000
 U2x  =  0.000000000000000E+000
 U2y  =  0.000000000000000E+000
 Phi2 =  0.000000000000000E+000
 U3x  =  0.000000000000000E+000
 U3y  =  0.000000000000000E+000
 Phi3 =  0.000000000000000E+000
 U4x  =  0.000000000000000E+000
 U4y  =  0.000000000000000E+000
 Phi4 =  0.000000000000000E+000
 ***********************************
 CURRENT ELEMENT NUMBER::::          58
 NUMBER OF NODES:::           4
 DOFs:::           2
 TOTAL DOF OF ELEMENT:::           12
 ************************************
          58
 AREA1  0.000000000000000E+000
 AREA2  0.000000000000000E+000
 U1x  =  0.000000000000000E+000
 U1y  =  0.000000000000000E+000
 Phi1 =  0.000000000000000E+000
 U2x  =  0.000000000000000E+000
 U2y  =  0.000000000000000E+000
 Phi2 =  0.000000000000000E+000
 U3x  =  0.000000000000000E+000
 U3y  =  0.000000000000000E+000
 Phi3 =  0.000000000000000E+000
 U4x  =  0.000000000000000E+000
 U4y  =  0.000000000000000E+000
 Phi4 =  0.000000000000000E+000
 ***********************************
 CURRENT ELEMENT NUMBER::::          59
 NUMBER OF NODES:::           4
 DOFs:::           2
 TOTAL DOF OF ELEMENT:::           12
 ************************************
          59
 AREA1  0.000000000000000E+000
 AREA2  0.000000000000000E+000
 U1x  =  0.000000000000000E+000
 U1y  =  0.000000000000000E+000
 Phi1 =  0.000000000000000E+000
 U2x  =  0.000000000000000E+000
 U2y  =  0.000000000000000E+000
 Phi2 =  0.000000000000000E+000
 U3x  =  0.000000000000000E+000
 U3y  =  0.000000000000000E+000
 Phi3 =  0.000000000000000E+000
 U4x  =  0.000000000000000E+000
 U4y  =  0.000000000000000E+000
 Phi4 =  0.000000000000000E+000
 ***********************************
 CURRENT ELEMENT NUMBER::::          60
 NUMBER OF NODES:::           4
 DOFs:::           2
 TOTAL DOF OF ELEMENT:::           12
 ************************************
          60
 AREA1  0.000000000000000E+000
 AREA2  0.000000000000000E+000
 U1x  =  0.000000000000000E+000
 U1y  =  0.000000000000000E+000
 Phi1 =  0.000000000000000E+000
 U2x  =  0.000000000000000E+000
 U2y  =  0.000000000000000E+000
 Phi2 =  0.000000000000000E+000
 U3x  =  0.000000000000000E+000
 U3y  =  0.000000000000000E+000
 Phi3 =  0.000000000000000E+000
 U4x  =  0.000000000000000E+000
 U4y  =  0.000000000000000E+000
 Phi4 =  0.000000000000000E+000
 ***********************************
 CURRENT ELEMENT NUMBER::::          61
 NUMBER OF NODES:::           4
 DOFs:::           2
 TOTAL DOF OF ELEMENT:::           12
 ************************************
          61
 AREA1  0.000000000000000E+000
 AREA2  0.000000000000000E+000
 U1x  =  0.000000000000000E+000
 U1y  =  0.000000000000000E+000
 Phi1 =  0.000000000000000E+000
 U2x  =  0.000000000000000E+000
 U2y  =  0.000000000000000E+000
 Phi2 =  0.000000000000000E+000
 U3x  =  0.000000000000000E+000
 U3y  =  0.000000000000000E+000
 Phi3 =  0.000000000000000E+000
 U4x  =  0.000000000000000E+000
 U4y  =  0.000000000000000E+000
 Phi4 =  0.000000000000000E+000
 ***********************************
 CURRENT ELEMENT NUMBER::::          62
 NUMBER OF NODES:::           4
 DOFs:::           2
 TOTAL DOF OF ELEMENT:::           12
 ************************************
          62
 AREA1  0.000000000000000E+000
 AREA2  0.000000000000000E+000
 U1x  =  0.000000000000000E+000
 U1y  =  0.000000000000000E+000
 Phi1 =  0.000000000000000E+000
 U2x  =  0.000000000000000E+000
 U2y  =  0.000000000000000E+000
 Phi2 =  0.000000000000000E+000
 U3x  =  0.000000000000000E+000
 U3y  =  0.000000000000000E+000
 Phi3 =  0.000000000000000E+000
 U4x  =  0.000000000000000E+000
 U4y  =  0.000000000000000E+000
 Phi4 =  0.000000000000000E+000
 ***********************************
 CURRENT ELEMENT NUMBER::::          63
 NUMBER OF NODES:::           4
 DOFs:::           2
 TOTAL DOF OF ELEMENT:::           12
 ************************************
          63
 AREA1  0.000000000000000E+000
 AREA2  0.000000000000000E+000
 U1x  =  0.000000000000000E+000
 U1y  =  0.000000000000000E+000
 Phi1 =  0.000000000000000E+000
 U2x  =  0.000000000000000E+000
 U2y  =  0.000000000000000E+000
 Phi2 =  0.000000000000000E+000
 U3x  =  0.000000000000000E+000
 U3y  =  0.000000000000000E+000
 Phi3 =  0.000000000000000E+000
 U4x  =  0.000000000000000E+000
 U4y  =  0.000000000000000E+000
 Phi4 =  0.000000000000000E+000
 ***********************************
 CURRENT ELEMENT NUMBER::::          64
 NUMBER OF NODES:::           4
 DOFs:::           2
 TOTAL DOF OF ELEMENT:::           12
 ************************************
          64
 AREA1  0.000000000000000E+000
 AREA2  0.000000000000000E+000
 U1x  =  0.000000000000000E+000
 U1y  =  0.000000000000000E+000
 Phi1 =  0.000000000000000E+000
 U2x  =  0.000000000000000E+000
 U2y  =  0.000000000000000E+000
 Phi2 =  0.000000000000000E+000
 U3x  =  0.000000000000000E+000
 U3y  =  0.000000000000000E+000
 Phi3 =  0.000000000000000E+000
 U4x  =  0.000000000000000E+000
 U4y  =  0.000000000000000E+000
 Phi4 =  0.000000000000000E+000


  INCREMENT     1 STARTS. ATTEMPT NUMBER  1, TIME INCREMENT   1.00    
 ***********************************
 CURRENT ELEMENT NUMBER::::           1
 NUMBER OF NODES:::           4
 DOFs:::           2
 TOTAL DOF OF ELEMENT:::           12
 ************************************
           1
 AREA1  0.000000000000000E+000
 AREA2  0.000000000000000E+000
 U1x  =  0.000000000000000E+000
 U1y  =  0.000000000000000E+000
 Phi1 =  0.000000000000000E+000
 U2x  =  0.000000000000000E+000
 U2y  =  0.000000000000000E+000
 Phi2 =  0.000000000000000E+000
 U3x  =  0.000000000000000E+000
 U3y  =  0.000000000000000E+000
 Phi3 =  0.000000000000000E+000
 U4x  =  0.000000000000000E+000
 U4y  =  0.000000000000000E+000
 Phi4 =  0.000000000000000E+000
 ***********************************
 CURRENT ELEMENT NUMBER::::           2
 NUMBER OF NODES:::           4
 DOFs:::           2
 TOTAL DOF OF ELEMENT:::           12
 ************************************
           2
 AREA1  0.000000000000000E+000
 AREA2  0.000000000000000E+000
 U1x  =  0.000000000000000E+000
 U1y  =  0.000000000000000E+000
 Phi1 =  0.000000000000000E+000
 U2x  =  0.000000000000000E+000
 U2y  =  0.000000000000000E+000
 Phi2 =  0.000000000000000E+000
 U3x  =  0.000000000000000E+000
 U3y  =  0.000000000000000E+000
 Phi3 =  0.000000000000000E+000
 U4x  =  0.000000000000000E+000
 U4y  =  0.000000000000000E+000
 Phi4 =  0.000000000000000E+000
 ***********************************
 CURRENT ELEMENT NUMBER::::           3
 NUMBER OF NODES:::           4
 DOFs:::           2
 TOTAL DOF OF ELEMENT:::           12
 ************************************
           3
 AREA1  0.000000000000000E+000
 AREA2  0.000000000000000E+000
 U1x  =  0.000000000000000E+000
 U1y  =  0.000000000000000E+000
 Phi1 =  0.000000000000000E+000
 U2x  =  0.000000000000000E+000
 U2y  =  0.000000000000000E+000
 Phi2 =  0.000000000000000E+000
 U3x  =  0.000000000000000E+000
 U3y  =  0.000000000000000E+000
 Phi3 =  0.000000000000000E+000
 U4x  =  0.000000000000000E+000
 U4y  =  0.000000000000000E+000
 Phi4 =  0.000000000000000E+000
 ***********************************
 CURRENT ELEMENT NUMBER::::           4
 NUMBER OF NODES:::           4
 DOFs:::           2
 TOTAL DOF OF ELEMENT:::           12
 ************************************
           4
 AREA1  0.000000000000000E+000
 AREA2  0.000000000000000E+000
 U1x  =  0.000000000000000E+000
 U1y  =  0.000000000000000E+000
 Phi1 =  0.000000000000000E+000
 U2x  =  0.000000000000000E+000
 U2y  =  0.000000000000000E+000
 Phi2 =  0.000000000000000E+000
 U3x  =  0.000000000000000E+000
 U3y  =  0.000000000000000E+000
 Phi3 =  0.000000000000000E+000
 U4x  =  0.000000000000000E+000
 U4y  =  0.000000000000000E+000
 Phi4 =  0.000000000000000E+000
 ***********************************
 CURRENT ELEMENT NUMBER::::           5
 NUMBER OF NODES:::           4
 DOFs:::           2
 TOTAL DOF OF ELEMENT:::           12
 ************************************
           5
 AREA1  0.000000000000000E+000
 AREA2  0.000000000000000E+000
 U1x  =  0.000000000000000E+000
 U1y  =  0.000000000000000E+000
 Phi1 =  0.000000000000000E+000
 U2x  =  0.000000000000000E+000
 U2y  =  0.000000000000000E+000
 Phi2 =  0.000000000000000E+000
 U3x  =  0.000000000000000E+000
 U3y  =  0.000000000000000E+000
 Phi3 =  0.000000000000000E+000
 U4x  =  0.000000000000000E+000
 U4y  =  0.000000000000000E+000
 Phi4 =  0.000000000000000E+000
 ***********************************
 CURRENT ELEMENT NUMBER::::           6
 NUMBER OF NODES:::           4
 DOFs:::           2
 TOTAL DOF OF ELEMENT:::           12
 ************************************
           6
 AREA1  0.000000000000000E+000
 AREA2  0.000000000000000E+000
 U1x  =  0.000000000000000E+000
 U1y  =  0.000000000000000E+000
 Phi1 =  0.000000000000000E+000
 U2x  =  0.000000000000000E+000
 U2y  =  0.000000000000000E+000
 Phi2 =  0.000000000000000E+000
 U3x  =  0.000000000000000E+000
 U3y  =  0.000000000000000E+000
 Phi3 =  0.000000000000000E+000
 U4x  =  0.000000000000000E+000
 U4y  =  0.000000000000000E+000
 Phi4 =  0.000000000000000E+000
 ***********************************
 CURRENT ELEMENT NUMBER::::           7
 NUMBER OF NODES:::           4
 DOFs:::           2
 TOTAL DOF OF ELEMENT:::           12
 ************************************
           7
 AREA1  0.000000000000000E+000
 AREA2  0.000000000000000E+000
 U1x  =  0.000000000000000E+000
 U1y  =  0.000000000000000E+000
 Phi1 =  0.000000000000000E+000
 U2x  =  0.000000000000000E+000
 U2y  =  0.000000000000000E+000
 Phi2 =  0.000000000000000E+000
 U3x  =  0.000000000000000E+000
 U3y  =  0.000000000000000E+000
 Phi3 =  0.000000000000000E+000
 U4x  =  0.000000000000000E+000
 U4y  =  0.000000000000000E+000
 Phi4 =  0.000000000000000E+000
 ***********************************
 CURRENT ELEMENT NUMBER::::           8
 NUMBER OF NODES:::           4
 DOFs:::           2
 TOTAL DOF OF ELEMENT:::           12
 ************************************
           8
 AREA1  0.000000000000000E+000
 AREA2  0.000000000000000E+000
 U1x  =  0.000000000000000E+000
 U1y  =  0.000000000000000E+000
 Phi1 =  0.000000000000000E+000
 U2x  =  0.000000000000000E+000
 U2y  =  0.000000000000000E+000
 Phi2 =  0.000000000000000E+000
 U3x  =  0.000000000000000E+000
 U3y  =  0.000000000000000E+000
 Phi3 =  0.000000000000000E+000
 U4x  =  0.000000000000000E+000
 U4y  =  0.000000000000000E+000
 Phi4 =  0.000000000000000E+000
 ***********************************
 CURRENT ELEMENT NUMBER::::           9
 NUMBER OF NODES:::           4
 DOFs:::           2
 TOTAL DOF OF ELEMENT:::           12
 ************************************
           9
 AREA1  0.000000000000000E+000
 AREA2  0.000000000000000E+000
 U1x  =  0.000000000000000E+000
 U1y  =  0.000000000000000E+000
 Phi1 =  0.000000000000000E+000
 U2x  =  0.000000000000000E+000
 U2y  =  0.000000000000000E+000
 Phi2 =  0.000000000000000E+000
 U3x  =  0.000000000000000E+000
 U3y  =  0.000000000000000E+000
 Phi3 =  0.000000000000000E+000
 U4x  =  0.000000000000000E+000
 U4y  =  0.000000000000000E+000
 Phi4 =  0.000000000000000E+000
 ***********************************
 CURRENT ELEMENT NUMBER::::          10
 NUMBER OF NODES:::           4
 DOFs:::           2
 TOTAL DOF OF ELEMENT:::           12
 ************************************
          10
 AREA1  0.000000000000000E+000
 AREA2  0.000000000000000E+000
 U1x  =  0.000000000000000E+000
 U1y  =  0.000000000000000E+000
 Phi1 =  0.000000000000000E+000
 U2x  =  0.000000000000000E+000
 U2y  =  0.000000000000000E+000
 Phi2 =  0.000000000000000E+000
 U3x  =  0.000000000000000E+000
 U3y  =  0.000000000000000E+000
 Phi3 =  0.000000000000000E+000
 U4x  =  0.000000000000000E+000
 U4y  =  0.000000000000000E+000
 Phi4 =  0.000000000000000E+000
 ***********************************
 CURRENT ELEMENT NUMBER::::          11
 NUMBER OF NODES:::           4
 DOFs:::           2
 TOTAL DOF OF ELEMENT:::           12
 ************************************
          11
 AREA1  0.000000000000000E+000
 AREA2  0.000000000000000E+000
 U1x  =  0.000000000000000E+000
 U1y  =  0.000000000000000E+000
 Phi1 =  0.000000000000000E+000
 U2x  =  0.000000000000000E+000
 U2y  =  0.000000000000000E+000
 Phi2 =  0.000000000000000E+000
 U3x  =  0.000000000000000E+000
 U3y  =  0.000000000000000E+000
 Phi3 =  0.000000000000000E+000
 U4x  =  0.000000000000000E+000
 U4y  =  0.000000000000000E+000
 Phi4 =  0.000000000000000E+000
 ***********************************
 CURRENT ELEMENT NUMBER::::          12
 NUMBER OF NODES:::           4
 DOFs:::           2
 TOTAL DOF OF ELEMENT:::           12
 ************************************
          12
 AREA1  0.000000000000000E+000
 AREA2  0.000000000000000E+000
 U1x  =  0.000000000000000E+000
 U1y  =  0.000000000000000E+000
 Phi1 =  0.000000000000000E+000
 U2x  =  0.000000000000000E+000
 U2y  =  0.000000000000000E+000
 Phi2 =  0.000000000000000E+000
 U3x  =  0.000000000000000E+000
 U3y  =  0.000000000000000E+000
 Phi3 =  0.000000000000000E+000
 U4x  =  0.000000000000000E+000
 U4y  =  0.000000000000000E+000
 Phi4 =  0.000000000000000E+000
 ***********************************
 CURRENT ELEMENT NUMBER::::          13
 NUMBER OF NODES:::           4
 DOFs:::           2
 TOTAL DOF OF ELEMENT:::           12
 ************************************
          13
 AREA1  0.000000000000000E+000
 AREA2  0.000000000000000E+000
 U1x  =  0.000000000000000E+000
 U1y  =  0.000000000000000E+000
 Phi1 =  0.000000000000000E+000
 U2x  =  0.000000000000000E+000
 U2y  =  0.000000000000000E+000
 Phi2 =  0.000000000000000E+000
 U3x  =  0.000000000000000E+000
 U3y  =  0.000000000000000E+000
 Phi3 =  0.000000000000000E+000
 U4x  =  0.000000000000000E+000
 U4y  =  0.000000000000000E+000
 Phi4 =  0.000000000000000E+000
 ***********************************
 CURRENT ELEMENT NUMBER::::          14
 NUMBER OF NODES:::           4
 DOFs:::           2
 TOTAL DOF OF ELEMENT:::           12
 ************************************
          14
 AREA1  0.000000000000000E+000
 AREA2  0.000000000000000E+000
 U1x  =  0.000000000000000E+000
 U1y  =  0.000000000000000E+000
 Phi1 =  0.000000000000000E+000
 U2x  =  0.000000000000000E+000
 U2y  =  0.000000000000000E+000
 Phi2 =  0.000000000000000E+000
 U3x  =  0.000000000000000E+000
 U3y  =  0.000000000000000E+000
 Phi3 =  0.000000000000000E+000
 U4x  =  0.000000000000000E+000
 U4y  =  0.000000000000000E+000
 Phi4 =  0.000000000000000E+000
 ***********************************
 CURRENT ELEMENT NUMBER::::          15
 NUMBER OF NODES:::           4
 DOFs:::           2
 TOTAL DOF OF ELEMENT:::           12
 ************************************
          15
 AREA1  0.000000000000000E+000
 AREA2  0.000000000000000E+000
 U1x  =  0.000000000000000E+000
 U1y  =  0.000000000000000E+000
 Phi1 =  0.000000000000000E+000
 U2x  =  0.000000000000000E+000
 U2y  =  0.000000000000000E+000
 Phi2 =  0.000000000000000E+000
 U3x  =  0.000000000000000E+000
 U3y  =  0.000000000000000E+000
 Phi3 =  0.000000000000000E+000
 U4x  =  0.000000000000000E+000
 U4y  =  0.000000000000000E+000
 Phi4 =  0.000000000000000E+000
 ***********************************
 CURRENT ELEMENT NUMBER::::          16
 NUMBER OF NODES:::           4
 DOFs:::           2
 TOTAL DOF OF ELEMENT:::           12
 ************************************
          16
 AREA1  0.000000000000000E+000
 AREA2  0.000000000000000E+000
 U1x  =  0.000000000000000E+000
 U1y  =  0.000000000000000E+000
 Phi1 =  0.000000000000000E+000
 U2x  =  0.000000000000000E+000
 U2y  =  0.000000000000000E+000
 Phi2 =  0.000000000000000E+000
 U3x  =  0.000000000000000E+000
 U3y  =  0.000000000000000E+000
 Phi3 =  0.000000000000000E+000
 U4x  =  0.000000000000000E+000
 U4y  =  0.000000000000000E+000
 Phi4 =  0.000000000000000E+000
 ***********************************
 CURRENT ELEMENT NUMBER::::          17
 NUMBER OF NODES:::           4
 DOFs:::           2
 TOTAL DOF OF ELEMENT:::           12
 ************************************
          17
 AREA1  0.000000000000000E+000
 AREA2  0.000000000000000E+000
 U1x  =  0.000000000000000E+000
 U1y  =  0.000000000000000E+000
 Phi1 =  0.000000000000000E+000
 U2x  =  0.000000000000000E+000
 U2y  =  0.000000000000000E+000
 Phi2 =  0.000000000000000E+000
 U3x  =  0.000000000000000E+000
 U3y  =  0.000000000000000E+000
 Phi3 =  0.000000000000000E+000
 U4x  =  0.000000000000000E+000
 U4y  =  0.000000000000000E+000
 Phi4 =  0.000000000000000E+000
 ***********************************
 CURRENT ELEMENT NUMBER::::          18
 NUMBER OF NODES:::           4
 DOFs:::           2
 TOTAL DOF OF ELEMENT:::           12
 ************************************
          18
 AREA1  0.000000000000000E+000
 AREA2  0.000000000000000E+000
 U1x  =  0.000000000000000E+000
 U1y  =  0.000000000000000E+000
 Phi1 =  0.000000000000000E+000
 U2x  =  0.000000000000000E+000
 U2y  =  0.000000000000000E+000
 Phi2 =  0.000000000000000E+000
 U3x  =  0.000000000000000E+000
 U3y  =  0.000000000000000E+000
 Phi3 =  0.000000000000000E+000
 U4x  =  0.000000000000000E+000
 U4y  =  0.000000000000000E+000
 Phi4 =  0.000000000000000E+000
 ***********************************
 CURRENT ELEMENT NUMBER::::          19
 NUMBER OF NODES:::           4
 DOFs:::           2
 TOTAL DOF OF ELEMENT:::           12
 ************************************
          19
 AREA1  0.000000000000000E+000
 AREA2  0.000000000000000E+000
 U1x  =  0.000000000000000E+000
 U1y  =  0.000000000000000E+000
 Phi1 =  0.000000000000000E+000
 U2x  =  0.000000000000000E+000
 U2y  =  0.000000000000000E+000
 Phi2 =  0.000000000000000E+000
 U3x  =  0.000000000000000E+000
 U3y  =  0.000000000000000E+000
 Phi3 =  0.000000000000000E+000
 U4x  =  0.000000000000000E+000
 U4y  =  0.000000000000000E+000
 Phi4 =  0.000000000000000E+000
 ***********************************
 CURRENT ELEMENT NUMBER::::          20
 NUMBER OF NODES:::           4
 DOFs:::           2
 TOTAL DOF OF ELEMENT:::           12
 ************************************
          20
 AREA1  0.000000000000000E+000
 AREA2  0.000000000000000E+000
 U1x  =  0.000000000000000E+000
 U1y  =  0.000000000000000E+000
 Phi1 =  0.000000000000000E+000
 U2x  =  0.000000000000000E+000
 U2y  =  0.000000000000000E+000
 Phi2 =  0.000000000000000E+000
 U3x  =  0.000000000000000E+000
 U3y  =  0.000000000000000E+000
 Phi3 =  0.000000000000000E+000
 U4x  =  0.000000000000000E+000
 U4y  =  0.000000000000000E+000
 Phi4 =  0.000000000000000E+000
 ***********************************
 CURRENT ELEMENT NUMBER::::          21
 NUMBER OF NODES:::           4
 DOFs:::           2
 TOTAL DOF OF ELEMENT:::           12
 ************************************
          21
 AREA1  0.000000000000000E+000
 AREA2  0.000000000000000E+000
 U1x  =  0.000000000000000E+000
 U1y  =  0.000000000000000E+000
 Phi1 =  0.000000000000000E+000
 U2x  =  0.000000000000000E+000
 U2y  =  0.000000000000000E+000
 Phi2 =  0.000000000000000E+000
 U3x  =  0.000000000000000E+000
 U3y  =  0.000000000000000E+000
 Phi3 =  0.000000000000000E+000
 U4x  =  0.000000000000000E+000
 U4y  =  0.000000000000000E+000
 Phi4 =  0.000000000000000E+000
 ***********************************
 CURRENT ELEMENT NUMBER::::          22
 NUMBER OF NODES:::           4
 DOFs:::           2
 TOTAL DOF OF ELEMENT:::           12
 ************************************
          22
 AREA1  0.000000000000000E+000
 AREA2  0.000000000000000E+000
 U1x  =  0.000000000000000E+000
 U1y  =  0.000000000000000E+000
 Phi1 =  0.000000000000000E+000
 U2x  =  0.000000000000000E+000
 U2y  =  0.000000000000000E+000
 Phi2 =  0.000000000000000E+000
 U3x  =  0.000000000000000E+000
 U3y  =  0.000000000000000E+000
 Phi3 =  0.000000000000000E+000
 U4x  =  0.000000000000000E+000
 U4y  =  0.000000000000000E+000
 Phi4 =  0.000000000000000E+000
 ***********************************
 CURRENT ELEMENT NUMBER::::          23
 NUMBER OF NODES:::           4
 DOFs:::           2
 TOTAL DOF OF ELEMENT:::           12
 ************************************
          23
 AREA1  0.000000000000000E+000
 AREA2  0.000000000000000E+000
 U1x  =  0.000000000000000E+000
 U1y  =  0.000000000000000E+000
 Phi1 =  0.000000000000000E+000
 U2x  =  0.000000000000000E+000
 U2y  =  0.000000000000000E+000
 Phi2 =  0.000000000000000E+000
 U3x  =  0.000000000000000E+000
 U3y  =  0.000000000000000E+000
 Phi3 =  0.000000000000000E+000
 U4x  =  0.000000000000000E+000
 U4y  =  0.000000000000000E+000
 Phi4 =  0.000000000000000E+000
 ***********************************
 CURRENT ELEMENT NUMBER::::          24
 NUMBER OF NODES:::           4
 DOFs:::           2
 TOTAL DOF OF ELEMENT:::           12
 ************************************
          24
 AREA1  0.000000000000000E+000
 AREA2  0.000000000000000E+000
 U1x  =  0.000000000000000E+000
 U1y  =  0.000000000000000E+000
 Phi1 =  0.000000000000000E+000
 U2x  =  0.000000000000000E+000
 U2y  =  0.000000000000000E+000
 Phi2 =  0.000000000000000E+000
 U3x  =  0.000000000000000E+000
 U3y  =  0.000000000000000E+000
 Phi3 =  0.000000000000000E+000
 U4x  =  0.000000000000000E+000
 U4y  =  0.000000000000000E+000
 Phi4 =  0.000000000000000E+000
 ***********************************
 CURRENT ELEMENT NUMBER::::          25
 NUMBER OF NODES:::           4
 DOFs:::           2
 TOTAL DOF OF ELEMENT:::           12
 ************************************
          25
 AREA1  0.000000000000000E+000
 AREA2  0.000000000000000E+000
 U1x  =  0.000000000000000E+000
 U1y  =  0.000000000000000E+000
 Phi1 =  0.000000000000000E+000
 U2x  =  0.000000000000000E+000
 U2y  =  0.000000000000000E+000
 Phi2 =  0.000000000000000E+000
 U3x  =  0.000000000000000E+000
 U3y  =  0.000000000000000E+000
 Phi3 =  0.000000000000000E+000
 U4x  =  0.000000000000000E+000
 U4y  =  0.000000000000000E+000
 Phi4 =  0.000000000000000E+000
 ***********************************
 CURRENT ELEMENT NUMBER::::          26
 NUMBER OF NODES:::           4
 DOFs:::           2
 TOTAL DOF OF ELEMENT:::           12
 ************************************
          26
 AREA1  0.000000000000000E+000
 AREA2  0.000000000000000E+000
 U1x  =  0.000000000000000E+000
 U1y  =  0.000000000000000E+000
 Phi1 =  0.000000000000000E+000
 U2x  =  0.000000000000000E+000
 U2y  =  0.000000000000000E+000
 Phi2 =  0.000000000000000E+000
 U3x  =  0.000000000000000E+000
 U3y  =  0.000000000000000E+000
 Phi3 =  0.000000000000000E+000
 U4x  =  0.000000000000000E+000
 U4y  =  0.000000000000000E+000
 Phi4 =  0.000000000000000E+000
 ***********************************
 CURRENT ELEMENT NUMBER::::          27
 NUMBER OF NODES:::           4
 DOFs:::           2
 TOTAL DOF OF ELEMENT:::           12
 ************************************
          27
 AREA1  0.000000000000000E+000
 AREA2  0.000000000000000E+000
 U1x  =  0.000000000000000E+000
 U1y  =  0.000000000000000E+000
 Phi1 =  0.000000000000000E+000
 U2x  =  0.000000000000000E+000
 U2y  =  0.000000000000000E+000
 Phi2 =  0.000000000000000E+000
 U3x  =  0.000000000000000E+000
 U3y  =  0.000000000000000E+000
 Phi3 =  0.000000000000000E+000
 U4x  =  0.000000000000000E+000
 U4y  =  0.000000000000000E+000
 Phi4 =  0.000000000000000E+000
 ***********************************
 CURRENT ELEMENT NUMBER::::          28
 NUMBER OF NODES:::           4
 DOFs:::           2
 TOTAL DOF OF ELEMENT:::           12
 ************************************
          28
 AREA1  0.000000000000000E+000
 AREA2  0.000000000000000E+000
 U1x  =  0.000000000000000E+000
 U1y  =  0.000000000000000E+000
 Phi1 =  0.000000000000000E+000
 U2x  =  0.000000000000000E+000
 U2y  =  0.000000000000000E+000
 Phi2 =  0.000000000000000E+000
 U3x  =  0.000000000000000E+000
 U3y  =  0.000000000000000E+000
 Phi3 =  0.000000000000000E+000
 U4x  =  0.000000000000000E+000
 U4y  =  0.000000000000000E+000
 Phi4 =  0.000000000000000E+000
 ***********************************
 CURRENT ELEMENT NUMBER::::          29
 NUMBER OF NODES:::           4
 DOFs:::           2
 TOTAL DOF OF ELEMENT:::           12
 ************************************
          29
 AREA1  0.000000000000000E+000
 AREA2  0.000000000000000E+000
 U1x  =  0.000000000000000E+000
 U1y  =  0.000000000000000E+000
 Phi1 =  0.000000000000000E+000
 U2x  =  0.000000000000000E+000
 U2y  =  0.000000000000000E+000
 Phi2 =  0.000000000000000E+000
 U3x  =  0.000000000000000E+000
 U3y  =  0.000000000000000E+000
 Phi3 =  0.000000000000000E+000
 U4x  =  0.000000000000000E+000
 U4y  =  0.000000000000000E+000
 Phi4 =  0.000000000000000E+000
 ***********************************
 CURRENT ELEMENT NUMBER::::          30
 NUMBER OF NODES:::           4
 DOFs:::           2
 TOTAL DOF OF ELEMENT:::           12
 ************************************
          30
 AREA1  0.000000000000000E+000
 AREA2  0.000000000000000E+000
 U1x  =  0.000000000000000E+000
 U1y  =  0.000000000000000E+000
 Phi1 =  0.000000000000000E+000
 U2x  =  0.000000000000000E+000
 U2y  =  0.000000000000000E+000
 Phi2 =  0.000000000000000E+000
 U3x  =  0.000000000000000E+000
 U3y  =  0.000000000000000E+000
 Phi3 =  0.000000000000000E+000
 U4x  =  0.000000000000000E+000
 U4y  =  0.000000000000000E+000
 Phi4 =  0.000000000000000E+000
 ***********************************
 CURRENT ELEMENT NUMBER::::          31
 NUMBER OF NODES:::           4
 DOFs:::           2
 TOTAL DOF OF ELEMENT:::           12
 ************************************
          31
 AREA1  0.000000000000000E+000
 AREA2  0.000000000000000E+000
 U1x  =  0.000000000000000E+000
 U1y  =  0.000000000000000E+000
 Phi1 =  0.000000000000000E+000
 U2x  =  0.000000000000000E+000
 U2y  =  0.000000000000000E+000
 Phi2 =  0.000000000000000E+000
 U3x  =  0.000000000000000E+000
 U3y  =  0.000000000000000E+000
 Phi3 =  0.000000000000000E+000
 U4x  =  0.000000000000000E+000
 U4y  =  0.000000000000000E+000
 Phi4 =  0.000000000000000E+000
 ***********************************
 CURRENT ELEMENT NUMBER::::          32
 NUMBER OF NODES:::           4
 DOFs:::           2
 TOTAL DOF OF ELEMENT:::           12
 ************************************
          32
 AREA1  0.000000000000000E+000
 AREA2  0.000000000000000E+000
 U1x  =  0.000000000000000E+000
 U1y  =  0.000000000000000E+000
 Phi1 =  0.000000000000000E+000
 U2x  =  0.000000000000000E+000
 U2y  =  0.000000000000000E+000
 Phi2 =  0.000000000000000E+000
 U3x  =  0.000000000000000E+000
 U3y  =  0.000000000000000E+000
 Phi3 =  0.000000000000000E+000
 U4x  =  0.000000000000000E+000
 U4y  =  0.000000000000000E+000
 Phi4 =  0.000000000000000E+000
 ***********************************
 CURRENT ELEMENT NUMBER::::          33
 NUMBER OF NODES:::           4
 DOFs:::           2
 TOTAL DOF OF ELEMENT:::           12
 ************************************
          33
 AREA1  0.000000000000000E+000
 AREA2  0.000000000000000E+000
 U1x  =  0.000000000000000E+000
 U1y  =  0.000000000000000E+000
 Phi1 =  0.000000000000000E+000
 U2x  =  0.000000000000000E+000
 U2y  =  0.000000000000000E+000
 Phi2 =  0.000000000000000E+000
 U3x  =  0.000000000000000E+000
 U3y  =  0.000000000000000E+000
 Phi3 =  0.000000000000000E+000
 U4x  =  0.000000000000000E+000
 U4y  =  0.000000000000000E+000
 Phi4 =  0.000000000000000E+000
 ***********************************
 CURRENT ELEMENT NUMBER::::          34
 NUMBER OF NODES:::           4
 DOFs:::           2
 TOTAL DOF OF ELEMENT:::           12
 ************************************
          34
 AREA1  0.000000000000000E+000
 AREA2  0.000000000000000E+000
 U1x  =  0.000000000000000E+000
 U1y  =  0.000000000000000E+000
 Phi1 =  0.000000000000000E+000
 U2x  =  0.000000000000000E+000
 U2y  =  0.000000000000000E+000
 Phi2 =  0.000000000000000E+000
 U3x  =  0.000000000000000E+000
 U3y  =  0.000000000000000E+000
 Phi3 =  0.000000000000000E+000
 U4x  =  0.000000000000000E+000
 U4y  =  0.000000000000000E+000
 Phi4 =  0.000000000000000E+000
 ***********************************
 CURRENT ELEMENT NUMBER::::          35
 NUMBER OF NODES:::           4
 DOFs:::           2
 TOTAL DOF OF ELEMENT:::           12
 ************************************
          35
 AREA1  0.000000000000000E+000
 AREA2  0.000000000000000E+000
 U1x  =  0.000000000000000E+000
 U1y  =  0.000000000000000E+000
 Phi1 =  0.000000000000000E+000
 U2x  =  0.000000000000000E+000
 U2y  =  0.000000000000000E+000
 Phi2 =  0.000000000000000E+000
 U3x  =  0.000000000000000E+000
 U3y  =  0.000000000000000E+000
 Phi3 =  0.000000000000000E+000
 U4x  =  0.000000000000000E+000
 U4y  =  0.000000000000000E+000
 Phi4 =  0.000000000000000E+000
 ***********************************
 CURRENT ELEMENT NUMBER::::          36
 NUMBER OF NODES:::           4
 DOFs:::           2
 TOTAL DOF OF ELEMENT:::           12
 ************************************
          36
 AREA1  0.000000000000000E+000
 AREA2  0.000000000000000E+000
 U1x  =  0.000000000000000E+000
 U1y  =  0.000000000000000E+000
 Phi1 =  0.000000000000000E+000
 U2x  =  0.000000000000000E+000
 U2y  =  0.000000000000000E+000
 Phi2 =  0.000000000000000E+000
 U3x  =  0.000000000000000E+000
 U3y  =  0.000000000000000E+000
 Phi3 =  0.000000000000000E+000
 U4x  =  0.000000000000000E+000
 U4y  =  0.000000000000000E+000
 Phi4 =  0.000000000000000E+000
 ***********************************
 CURRENT ELEMENT NUMBER::::          37
 NUMBER OF NODES:::           4
 DOFs:::           2
 TOTAL DOF OF ELEMENT:::           12
 ************************************
          37
 AREA1  0.000000000000000E+000
 AREA2  0.000000000000000E+000
 U1x  =  0.000000000000000E+000
 U1y  =  0.000000000000000E+000
 Phi1 =  0.000000000000000E+000
 U2x  =  0.000000000000000E+000
 U2y  =  0.000000000000000E+000
 Phi2 =  0.000000000000000E+000
 U3x  =  0.000000000000000E+000
 U3y  =  0.000000000000000E+000
 Phi3 =  0.000000000000000E+000
 U4x  =  0.000000000000000E+000
 U4y  =  0.000000000000000E+000
 Phi4 =  0.000000000000000E+000
 ***********************************
 CURRENT ELEMENT NUMBER::::          38
 NUMBER OF NODES:::           4
 DOFs:::           2
 TOTAL DOF OF ELEMENT:::           12
 ************************************
          38
 AREA1  0.000000000000000E+000
 AREA2  0.000000000000000E+000
 U1x  =  0.000000000000000E+000
 U1y  =  0.000000000000000E+000
 Phi1 =  0.000000000000000E+000
 U2x  =  0.000000000000000E+000
 U2y  =  0.000000000000000E+000
 Phi2 =  0.000000000000000E+000
 U3x  =  0.000000000000000E+000
 U3y  =  0.000000000000000E+000
 Phi3 =  0.000000000000000E+000
 U4x  =  0.000000000000000E+000
 U4y  =  0.000000000000000E+000
 Phi4 =  0.000000000000000E+000
 ***********************************
 CURRENT ELEMENT NUMBER::::          39
 NUMBER OF NODES:::           4
 DOFs:::           2
 TOTAL DOF OF ELEMENT:::           12
 ************************************
          39
 AREA1  0.000000000000000E+000
 AREA2  0.000000000000000E+000
 U1x  =  0.000000000000000E+000
 U1y  =  0.000000000000000E+000
 Phi1 =  0.000000000000000E+000
 U2x  =  0.000000000000000E+000
 U2y  =  0.000000000000000E+000
 Phi2 =  0.000000000000000E+000
 U3x  =  0.000000000000000E+000
 U3y  =  0.000000000000000E+000
 Phi3 =  0.000000000000000E+000
 U4x  =  0.000000000000000E+000
 U4y  =  0.000000000000000E+000
 Phi4 =  0.000000000000000E+000
 ***********************************
 CURRENT ELEMENT NUMBER::::          40
 NUMBER OF NODES:::           4
 DOFs:::           2
 TOTAL DOF OF ELEMENT:::           12
 ************************************
          40
 AREA1  0.000000000000000E+000
 AREA2  0.000000000000000E+000
 U1x  =  0.000000000000000E+000
 U1y  =  0.000000000000000E+000
 Phi1 =  0.000000000000000E+000
 U2x  =  0.000000000000000E+000
 U2y  =  0.000000000000000E+000
 Phi2 =  0.000000000000000E+000
 U3x  =  0.000000000000000E+000
 U3y  =  0.000000000000000E+000
 Phi3 =  0.000000000000000E+000
 U4x  =  0.000000000000000E+000
 U4y  =  0.000000000000000E+000
 Phi4 =  0.000000000000000E+000
 ***********************************
 CURRENT ELEMENT NUMBER::::          41
 NUMBER OF NODES:::           4
 DOFs:::           2
 TOTAL DOF OF ELEMENT:::           12
 ************************************
          41
 AREA1  0.000000000000000E+000
 AREA2  0.000000000000000E+000
 U1x  =  0.000000000000000E+000
 U1y  =  0.000000000000000E+000
 Phi1 =  0.000000000000000E+000
 U2x  =  0.000000000000000E+000
 U2y  =  0.000000000000000E+000
 Phi2 =  0.000000000000000E+000
 U3x  =  0.000000000000000E+000
 U3y  =  0.000000000000000E+000
 Phi3 =  0.000000000000000E+000
 U4x  =  0.000000000000000E+000
 U4y  =  0.000000000000000E+000
 Phi4 =  0.000000000000000E+000
 ***********************************
 CURRENT ELEMENT NUMBER::::          42
 NUMBER OF NODES:::           4
 DOFs:::           2
 TOTAL DOF OF ELEMENT:::           12
 ************************************
          42
 AREA1  0.000000000000000E+000
 AREA2  0.000000000000000E+000
 U1x  =  0.000000000000000E+000
 U1y  =  0.000000000000000E+000
 Phi1 =  0.000000000000000E+000
 U2x  =  0.000000000000000E+000
 U2y  =  0.000000000000000E+000
 Phi2 =  0.000000000000000E+000
 U3x  =  0.000000000000000E+000
 U3y  =  0.000000000000000E+000
 Phi3 =  0.000000000000000E+000
 U4x  =  0.000000000000000E+000
 U4y  =  0.000000000000000E+000
 Phi4 =  0.000000000000000E+000
 ***********************************
 CURRENT ELEMENT NUMBER::::          43
 NUMBER OF NODES:::           4
 DOFs:::           2
 TOTAL DOF OF ELEMENT:::           12
 ************************************
          43
 AREA1  0.000000000000000E+000
 AREA2  0.000000000000000E+000
 U1x  =  0.000000000000000E+000
 U1y  =  0.000000000000000E+000
 Phi1 =  0.000000000000000E+000
 U2x  =  0.000000000000000E+000
 U2y  =  0.000000000000000E+000
 Phi2 =  0.000000000000000E+000
 U3x  =  0.000000000000000E+000
 U3y  =  0.000000000000000E+000
 Phi3 =  0.000000000000000E+000
 U4x  =  0.000000000000000E+000
 U4y  =  0.000000000000000E+000
 Phi4 =  0.000000000000000E+000
 ***********************************
 CURRENT ELEMENT NUMBER::::          44
 NUMBER OF NODES:::           4
 DOFs:::           2
 TOTAL DOF OF ELEMENT:::           12
 ************************************
          44
 AREA1  0.000000000000000E+000
 AREA2  0.000000000000000E+000
 U1x  =  0.000000000000000E+000
[...]
          39
 AREA1 -0.169470200060529     
 AREA2  -5.82496229512863     
 U1x  =  3.349417162264378E-005
 U1y  =  8.744060283997051E-004
 Phi1 =  -498.135529049208     
 U2x  =  3.920617489731109E-005
 U2y  =  1.018809849019988E-003
 Phi2 =  -748.566412586630     
 U3x  =  3.870373026129739E-005
 U3y  =  1.007225828979961E-003
 Phi3 =  -746.322775415105     
 U4x  =  3.333194041447785E-005
 U4y  =  8.614280331096741E-004
 Phi4 =  -493.318832812874     
 ***********************************
 CURRENT ELEMENT NUMBER::::          40
 NUMBER OF NODES:::           4
 DOFs:::           2
 TOTAL DOF OF ELEMENT:::           12
 ************************************
          40
 AREA1 -3.994229966008578E-002
 AREA2  -4.70460391971876     
 U1x  =  3.920617489731109E-005
 U1y  =  1.018809849019988E-003
 Phi1 =  -748.566412586630     
 U2x  =  4.351864404140851E-005
 U2y  =  1.162689682477939E-003
 Phi2 =  -1000.00000000000     
 U3x  =  4.312116259657800E-005
 U3y  =  1.153031600922514E-003
 Phi3 =  -1000.00000000000     
 U4x  =  3.870373026129739E-005
 U4y  =  1.007225828979961E-003
 Phi4 =  -746.322775415105     
 ***********************************
 CURRENT ELEMENT NUMBER::::          41
 NUMBER OF NODES:::           4
 DOFs:::           2
 TOTAL DOF OF ELEMENT:::           12
 ************************************
          41
 AREA1 -0.542639491432644     
 AREA2  -5.25475662232045     
 U1x  = -7.757698312707324E-038
 U1y  = -7.362824244343990E-006
 Phi1 =   1000.00000000000     
 U2x  =  3.465792810528397E-006
 U2y  =  1.354195976126209E-004
 Phi2 =   752.236327973629     
 U3x  =  4.206153146435442E-006
 U3y  =  1.230101655486601E-004
 Phi3 =   754.536229578275     
 U4x  = -6.099500920563239E-038
 U4y  = -1.785384551599043E-005
 Phi4 =   1000.00000000000     
 ***********************************
 CURRENT ELEMENT NUMBER::::          42
 NUMBER OF NODES:::           4
 DOFs:::           2
 TOTAL DOF OF ELEMENT:::           12
 ************************************
          42
 AREA1 -0.481014677747900     
 AREA2  -6.37305943524923     
 U1x  =  3.465792810528397E-006
 U1y  =  1.354195976126209E-004
 Phi1 =   752.236327973629     
 U2x  =  9.035545435556723E-006
 U2y  =  2.799726802045110E-004
 Phi2 =   504.848381645530     
 U3x  =  9.769587101370782E-006
 U3y  =  2.664759406699786E-004
 Phi3 =   511.492651361711     
 U4x  =  4.206153146435442E-006
 U4y  =  1.230101655486601E-004
 Phi4 =   754.536229578275     
 ***********************************
 CURRENT ELEMENT NUMBER::::          43
 NUMBER OF NODES:::           4
 DOFs:::           2
 TOTAL DOF OF ELEMENT:::           12
 ************************************
          43
 AREA1 -0.929000666128775     
 AREA2  -7.02614171635717     
 U1x  =  9.035545435556723E-006
 U1y  =  2.799726802045110E-004
 Phi1 =   504.848381645530     
 U2x  =  1.511697608988413E-005
 U2y  =  4.250930063392997E-004
 Phi2 =   257.635197407475     
 U3x  =  1.524331746473199E-005
 U3y  =  4.125656799895390E-004
 Phi3 =   265.964441218966     
 U4x  =  9.769587101370782E-006
 U4y  =  2.664759406699786E-004
 Phi4 =   511.492651361711     
 ***********************************
 CURRENT ELEMENT NUMBER::::          44
 NUMBER OF NODES:::           4
 DOFs:::           2
 TOTAL DOF OF ELEMENT:::           12
 ************************************
          44
 AREA1 -0.992861227793895     
 AREA2  -6.97861302762513     
 U1x  =  1.511697608988413E-005
 U1y  =  4.250930063392997E-004
 Phi1 =   257.635197407475     
 U2x  =  2.112198834752925E-005
 U2y  =  5.708670648322714E-004
 Phi2 =   9.12014011706043     
 U3x  =  2.074786553938147E-005
 U3y  =  5.583083058493266E-004
 Phi3 =   17.4506378545089     
 U4x  =  1.524331746473199E-005
 U4y  =  4.125656799895390E-004
 Phi4 =   265.964441218966     
 ***********************************
 CURRENT ELEMENT NUMBER::::          45
 NUMBER OF NODES:::           4
 DOFs:::           2
 TOTAL DOF OF ELEMENT:::           12
 ************************************
          45
 AREA1 -0.878796430493725     
 AREA2  -6.83747679825480     
 U1x  =  2.112198834752925E-005
 U1y  =  5.708670648322714E-004
 Phi1 =   9.12014011706043     
 U2x  =  2.717446893534488E-005
 U2y  =  7.161168586100738E-004
 Phi2 =  -241.160275684994     
 U3x  =  2.629744747423539E-005
 U3y  =  7.038080369302312E-004
 Phi3 =  -233.503322275140     
 U4x  =  2.074786553938147E-005
 U4y  =  5.583083058493266E-004
 Phi4 =   17.4506378545089     
 ***********************************
 CURRENT ELEMENT NUMBER::::          46
 NUMBER OF NODES:::           4
 DOFs:::           2
 TOTAL DOF OF ELEMENT:::           12
 ************************************
          46
 AREA1 -0.648563360966363     
 AREA2  -6.52629056991427     
 U1x  =  2.717446893534488E-005
 U1y  =  7.161168586100738E-004
 Phi1 =  -241.160275684994     
 U2x  =  3.333194041447785E-005
 U2y  =  8.614280331096741E-004
 Phi2 =  -493.318832812874     
 U3x  =  3.167779496222731E-005
 U3y  =  8.490302210923818E-004
 Phi3 =  -487.481288977810     
 U4x  =  2.629744747423539E-005
 U4y  =  7.038080369302312E-004
 Phi4 =  -233.503322275140     
 ***********************************
 CURRENT ELEMENT NUMBER::::          47
 NUMBER OF NODES:::           4
 DOFs:::           2
 TOTAL DOF OF ELEMENT:::           12
 ************************************
          47
 AREA1 -0.248848616570851     
 AREA2  -5.80759294188773     
 U1x  =  3.333194041447785E-005
 U1y  =  8.614280331096741E-004
 Phi1 =  -493.318832812874     
 U2x  =  3.870373026129739E-005
 U2y  =  1.007225828979961E-003
 Phi2 =  -746.322775415105     
 U3x  =  3.725223156119360E-005
 U3y  =  9.957215963034098E-004
 Phi3 =  -743.875939202104     
 U4x  =  3.167779496222731E-005
 U4y  =  8.490302210923818E-004
 Phi4 =  -487.481288977810     
 ***********************************
 CURRENT ELEMENT NUMBER::::          48
 NUMBER OF NODES:::           4
 DOFs:::           2
 TOTAL DOF OF ELEMENT:::           12
 ************************************
          48
 AREA1 -3.060408787149771E-002
 AREA2  -4.64104284290875     
 U1x  =  3.870373026129739E-005
 U1y  =  1.007225828979961E-003
 Phi1 =  -746.322775415105     
 U2x  =  4.312116259657800E-005
 U2y  =  1.153031600922514E-003
 Phi2 =  -1000.00000000000     
 U3x  =  4.152465419091377E-005
 U3y  =  1.143647835625400E-003
 Phi3 =  -1000.00000000000     
 U4x  =  3.725223156119360E-005
 U4y  =  9.957215963034098E-004
 Phi4 =  -743.875939202104     
 ***********************************
 CURRENT ELEMENT NUMBER::::          49
 NUMBER OF NODES:::           4
 DOFs:::           2
 TOTAL DOF OF ELEMENT:::           12
 ************************************
          49
 AREA1 -0.501673258623918     
 AREA2  -5.97819105609884     
 U1x  = -6.099500920563239E-038
 U1y  = -1.785384551599043E-005
 Phi1 =   1000.00000000000     
 U2x  =  4.206153146435442E-006
 U2y  =  1.230101655486601E-004
 Phi2 =   754.536229578275     
 U3x  =  5.496566408407116E-006
 U3y  =  1.093373118373627E-004
 Phi3 =   759.946057105011     
 U4x  = -4.367670080857968E-038
 U4y  = -2.945018660933948E-005
 Phi4 =   1000.00000000000     
 ***********************************
 CURRENT ELEMENT NUMBER::::          50
 NUMBER OF NODES:::           4
 DOFs:::           2
 TOTAL DOF OF ELEMENT:::           12
 ************************************
          50
 AREA1  -1.15073718074233     
 AREA2  -6.82618482379210     
 U1x  =  4.206153146435442E-006
 U1y  =  1.230101655486601E-004
 Phi1 =   754.536229578275     
 U2x  =  9.769587101370782E-006
 U2y  =  2.664759406699786E-004
 Phi2 =   511.492651361711     
 U3x  =  1.004869549600769E-005
 U3y  =  2.551282910207673E-004
 Phi3 =   520.109668909368     
 U4x  =  5.496566408407116E-006
 U4y  =  1.093373118373627E-004
 Phi4 =   759.946057105011     
 ***********************************
 CURRENT ELEMENT NUMBER::::          51
 NUMBER OF NODES:::           4
 DOFs:::           2
 TOTAL DOF OF ELEMENT:::           12
 ************************************
          51
 AREA1  -1.21737894385081     
 AREA2  -6.64690887673460     
 U1x  =  9.769587101370782E-006
 U1y  =  2.664759406699786E-004
 Phi1 =   511.492651361711     
 U2x  =  1.524331746473199E-005
 U2y  =  4.125656799895390E-004
 Phi2 =   265.964441218966     
 U3x  =  1.468713542310503E-005
 U3y  =  4.010333271908206E-004
 Phi3 =   274.687530094736     
 U4x  =  1.004869549600769E-005
 U4y  =  2.551282910207673E-004
 Phi4 =   520.109668909368     
 ***********************************
 CURRENT ELEMENT NUMBER::::          52
 NUMBER OF NODES:::           4
 DOFs:::           2
 TOTAL DOF OF ELEMENT:::           12
 ************************************
          52
 AREA1  -1.11454378865936     
 AREA2  -6.62522146903703     
 U1x  =  1.524331746473199E-005
 U1y  =  4.125656799895390E-004
 Phi1 =   265.964441218966     
 U2x  =  2.074786553938147E-005
 U2y  =  5.583083058493266E-004
 Phi2 =   17.4506378545089     
 U3x  =  1.972652258533111E-005
 U3y  =  5.469747745524714E-004
 Phi3 =   26.3428331411893     
 U4x  =  1.468713542310503E-005
 U4y  =  4.010333271908206E-004
 Phi4 =   274.687530094736     
 ***********************************
 CURRENT ELEMENT NUMBER::::          53
 NUMBER OF NODES:::           4
 DOFs:::           2
 TOTAL DOF OF ELEMENT:::           12
 ************************************
          53
 AREA1 -0.998056906992440     
 AREA2  -6.44603463210001     
 U1x  =  2.074786553938147E-005
 U1y  =  5.583083058493266E-004
 Phi1 =   17.4506378545089     
 U2x  =  2.629744747423539E-005
 U2y  =  7.038080369302312E-004
 Phi2 =  -233.503322275140     
 U3x  =  2.476247372515944E-005
 U3y  =  6.926842254624804E-004
 Phi3 =  -225.408715270116     
 U4x  =  1.972652258533111E-005
 U4y  =  5.469747745524714E-004
 Phi4 =   26.3428331411893     
 ***********************************
 CURRENT ELEMENT NUMBER::::          54
 NUMBER OF NODES:::           4
 DOFs:::           2
 TOTAL DOF OF ELEMENT:::           12
 ************************************
          54
 AREA1 -0.903132315620878     
 AREA2  -6.15614872568820     
 U1x  =  2.629744747423539E-005
 U1y  =  7.038080369302312E-004
 Phi1 =  -233.503322275140     
 U2x  =  3.167779496222731E-005
 U2y  =  8.490302210923818E-004
 Phi2 =  -487.481288977810     
 U3x  =  2.957679602230982E-005
 U3y  =  8.383781968871694E-004
 Phi3 =  -480.022921292429     
 U4x  =  2.476247372515944E-005
 U4y  =  6.926842254624804E-004
 Phi4 =  -225.408715270116     
 ***********************************
 CURRENT ELEMENT NUMBER::::          55
 NUMBER OF NODES:::           4
 DOFs:::           2
 TOTAL DOF OF ELEMENT:::           12
 ************************************
          55
 AREA1 -0.641881809727024     
 AREA2  -5.89892263774149     
 U1x  =  3.167779496222731E-005
 U1y  =  8.490302210923818E-004
 Phi1 =  -487.481288977810     
 U2x  =  3.725223156119360E-005
 U2y  =  9.957215963034098E-004
 Phi2 =  -743.875939202104     
 U3x  =  3.411719081415131E-005
 U3y  =  9.839725464478135E-004
 Phi3 =  -739.615177621856     
 U4x  =  2.957679602230982E-005
 U4y  =  8.383781968871694E-004
 Phi4 =  -480.022921292429     
 ***********************************
 CURRENT ELEMENT NUMBER::::          56
 NUMBER OF NODES:::           4
 DOFs:::           2
 TOTAL DOF OF ELEMENT:::           12
 ************************************
          56
 AREA1 -0.132616541985097     
 AREA2  -4.86736173332520     
 U1x  =  3.725223156119360E-005
 U1y  =  9.957215963034098E-004
 Phi1 =  -743.875939202104     
 U2x  =  4.152465419091377E-005
 U2y  =  1.143647835625400E-003
 Phi2 =  -1000.00000000000     
 U3x  =  3.884976626939966E-005
 U3y  =  1.134274035224368E-003
 Phi3 =  -1000.00000000000     
 U4x  =  3.411719081415131E-005
 U4y  =  9.839725464478135E-004
 Phi4 =  -739.615177621856     
 ***********************************
 CURRENT ELEMENT NUMBER::::          57
 NUMBER OF NODES:::           4
 DOFs:::           2
 TOTAL DOF OF ELEMENT:::           12
 ************************************
          57
 AREA1  -1.32630176027213     
 AREA2  -7.35753743023705     
 U1x  = -4.367670080857968E-038
 U1y  = -2.945018660933948E-005
 Phi1 =   1000.00000000000     
 U2x  =  5.496566408407116E-006
 U2y  =  1.093373118373627E-004
 Phi2 =   759.946057105011     
 U3x  =  4.512500000000000E-006
 U3y  =  9.899999999999999E-005
 Phi3 =   772.042372158020     
 U4x  = -1.738561337886713E-037
 U4y  = -4.700000000000000E-005
 Phi4 =   1000.00000000000     
 ***********************************
 CURRENT ELEMENT NUMBER::::          58
 NUMBER OF NODES:::           4
 DOFs:::           2
 TOTAL DOF OF ELEMENT:::           12
 ************************************
          58
 AREA1  -1.61515131825400     
 AREA2  -6.58184397198188     
 U1x  =  5.496566408407116E-006
 U1y  =  1.093373118373627E-004
 Phi1 =   759.946057105011     
 U2x  =  1.004869549600769E-005
 U2y  =  2.551282910207673E-004
 Phi2 =   520.109668909368     
 U3x  =  9.024999999999999E-006
 U3y  =  2.450000000000000E-004
 Phi3 =   529.266003873305     
 U4x  =  4.512500000000000E-006
 U4y  =  9.899999999999999E-005
 Phi4 =   772.042372158020     
 ***********************************
 CURRENT ELEMENT NUMBER::::          59
 NUMBER OF NODES:::           4
 DOFs:::           2
 TOTAL DOF OF ELEMENT:::           12
 ************************************
          59
 AREA1  -1.35308887011143     
 AREA2  -6.25125459839242     
 U1x  =  1.004869549600769E-005
 U1y  =  2.551282910207673E-004
 Phi1 =   520.109668909368     
 U2x  =  1.468713542310503E-005
 U2y  =  4.010333271908206E-004
 Phi2 =   274.687530094736     
 U3x  =  1.353750000000000E-005
 U3y  =  3.910000000000000E-004
 Phi3 =   284.598396253699     
 U4x  =  9.024999999999999E-006
 U4y  =  2.450000000000000E-004
 Phi4 =   529.266003873305     
 ***********************************
 CURRENT ELEMENT NUMBER::::          60
 NUMBER OF NODES:::           4
 DOFs:::           2
 TOTAL DOF OF ELEMENT:::           12
 ************************************
          60
 AREA1  -1.25245212892620     
 AREA2  -6.20799011284000     
 U1x  =  1.468713542310503E-005
 U1y  =  4.010333271908206E-004
 Phi1 =   274.687530094736     
 U2x  =  1.972652258533111E-005
 U2y  =  5.469747745524714E-004
 Phi2 =   26.3428331411893     
 U3x  =  1.805000000000000E-005
 U3y  =  5.370000000000000E-004
 Phi3 =   35.8700557979946     
 U4x  =  1.353750000000000E-005
 U4y  =  3.910000000000000E-004
 Phi4 =   284.598396253699     
 ***********************************
 CURRENT ELEMENT NUMBER::::          61
 NUMBER OF NODES:::           4
 DOFs:::           2
 TOTAL DOF OF ELEMENT:::           12
 ************************************
          61
 AREA1  -1.15403321859135     
 AREA2  -6.04687760968786     
 U1x  =  1.972652258533111E-005
 U1y  =  5.469747745524714E-004
 Phi1 =   26.3428331411893     
 U2x  =  2.476247372515944E-005
 U2y  =  6.926842254624804E-004
 Phi2 =  -225.408715270116     
 U3x  =  2.256250000000000E-005
 U3y  =  6.830000000000000E-004
 Phi3 =  -216.146315275086     
 U4x  =  1.805000000000000E-005
 U4y  =  5.370000000000000E-004
 Phi4 =   35.8700557979946     
 ***********************************
 CURRENT ELEMENT NUMBER::::          62
 NUMBER OF NODES:::           4
 DOFs:::           2
 TOTAL DOF OF ELEMENT:::           12
 ************************************
          62
 AREA1  -1.00497451106941     
 AREA2  -5.74281712190941     
 U1x  =  2.476247372515944E-005
 U1y  =  6.926842254624804E-004
 Phi1 =  -225.408715270116     
 U2x  =  2.957679602230982E-005
 U2y  =  8.383781968871694E-004
 Phi2 =  -480.022921292429     
 U3x  =  2.707499999999999E-005
 U3y  =  8.290000000000001E-004
 Phi3 =  -472.081000936204     
 U4x  =  2.256250000000000E-005
 U4y  =  6.830000000000000E-004
 Phi4 =  -216.146315275086     
 ***********************************
 CURRENT ELEMENT NUMBER::::          63
 NUMBER OF NODES:::           4
 DOFs:::           2
 TOTAL DOF OF ELEMENT:::           12
 ************************************
          63
 AREA1 -0.997226054409375     
 AREA2  -5.58194849917644     
 U1x  =  2.957679602230982E-005
 U1y  =  8.383781968871694E-004
 Phi1 =  -480.022921292429     
 U2x  =  3.411719081415131E-005
 U2y  =  9.839725464478135E-004
 Phi2 =  -739.615177621856     
 U3x  =  3.158750000000000E-005
 U3y  =  9.750000000000000E-004
 Phi3 =  -730.438358764846     
 U4x  =  2.707499999999999E-005
 U4y  =  8.290000000000001E-004
 Phi4 =  -472.081000936204     
 ***********************************
 CURRENT ELEMENT NUMBER::::          64
 NUMBER OF NODES:::           4
 DOFs:::           2
 TOTAL DOF OF ELEMENT:::           12
 ************************************
          64
 AREA1 -0.644246240244703     
 AREA2  -5.67470461029285     
 U1x  =  3.411719081415131E-005
 U1y  =  9.839725464478135E-004
 Phi1 =  -739.615177621856     
 U2x  =  3.884976626939966E-005
 U2y  =  1.134274035224368E-003
 Phi2 =  -1000.00000000000     
 U3x  =  3.610000000000000E-005
 U3y  =  1.121000000000000E-003
 Phi3 =  -1000.00000000000     
 U4x  =  3.158750000000000E-005
 U4y  =  9.750000000000000E-004
 Phi4 =  -730.438358764846     

               CONVERGENCE CHECKS FOR EQUILIBRIUM ITERATION     1


 AVERAGE FORCE                      0.224       TIME AVG. FORCE       0.224    
 LARGEST RESIDUAL FORCE            -3.020E-14   AT NODE         35   DOF  2
 LARGEST INCREMENT OF DISP.         1.215E-03   AT NODE          9   DOF  2
 LARGEST CORRECTION TO DISP.        1.215E-03   AT NODE          9   DOF  2
          THE FORCE     EQUILIBRIUM RESPONSE WAS LINEAR IN THIS INCREMENT

 AVERAGE CHARGE                     2.785E-06   TIME AVG. CHARGE      2.785E-06
 LARGEST RESIDUAL CHARGE            2.118E-20   AT NODE         44   DOF  9
 LARGEST INCREMENT OF E. POT.       1.000E+03   AT NODE          1   DOF  9
 LARGEST CORRECTION TO E. POT.      1.000E+03   AT NODE          1   DOF  9
          THE CHARGE    EQUILIBRIUM RESPONSE WAS LINEAR IN THIS INCREMENT

 ITERATION SUMMARY FOR THE INCREMENT:   1 TOTAL ITERATIONS, OF WHICH
   0 ARE SEVERE DISCONTINUITY ITERATIONS AND  1 ARE EQUILIBRIUM ITERATIONS.

 TIME INCREMENT COMPLETED   1.00    ,  FRACTION OF STEP COMPLETED   1.00    
 STEP TIME COMPLETED        1.00    ,  TOTAL TIME COMPLETED         1.00    


          THE ANALYSIS HAS BEEN COMPLETED



     ANALYSIS SUMMARY:
     TOTAL OF          1  INCREMENTS
                       0  CUTBACKS IN AUTOMATIC INCREMENTATION
                       1  ITERATIONS INCLUDING CONTACT ITERATIONS IF PRESENT
                       1  PASSES THROUGH THE EQUATION SOLVER OF WHICH 
                       1  INVOLVE MATRIX DECOMPOSITION, INCLUDING
                       0  DECOMPOSITION(S) OF THE MASS MATRIX
                       1  REORDERING OF EQUATIONS TO MINIMIZE WAVEFRONT
                       0  ADDITIONAL RESIDUAL EVALUATIONS FOR LINE SEARCHES
                       0  ADDITIONAL OPERATOR EVALUATIONS FOR LINE SEARCHES
                       1  WARNING MESSAGES DURING USER INPUT PROCESSING
                       0  WARNING MESSAGES DURING ANALYSIS
                       0  ANALYSIS WARNINGS ARE NUMERICAL PROBLEM MESSAGES
                       0  ANALYSIS WARNINGS ARE NEGATIVE EIGENVALUE MESSAGES
                       0  ERROR MESSAGES



     JOB TIME SUMMARY
       USER TIME (SEC)      =   0.0000    
       SYSTEM TIME (SEC)    =   0.0000    
       TOTAL CPU TIME (SEC) =   0.0000    
       WALLCLOCK TIME (SEC) =          0
