1

   Abaqus 3DEXPERIENCE R2018x                                  Date 11-May-2020   Time 14:17:15
   For use by Supplied by Team-SolidSQUAD under license from Dassault Systemes or its subsidiary.

 Plane Stress Linear Static analysis of Beam under Parabolic Loading             
                                                                                 
 STEP    1     INCREMENT     1     STEP TIME    0.00    


                        S T E P       1     S T A T I C   A N A L Y S I S


                                                                                          

     AUTOMATIC TIME CONTROL WITH -
          A SUGGESTED INITIAL TIME INCREMENT OF                 1.00    
          AND A TOTAL TIME PERIOD OF                            1.00    
          THE MINIMUM TIME INCREMENT ALLOWED IS                1.000E-05
          THE MAXIMUM TIME INCREMENT ALLOWED IS                 1.00    

     LINEAR EQUATION SOLVER TYPE         DIRECT SPARSE

 CONVERGENCE TOLERANCE PARAMETERS FOR FORCE    
     CRITERION FOR RESIDUAL FORCE     FOR A NONLINEAR PROBLEM          5.000E-03
     CRITERION FOR DISP.    CORRECTION IN A NONLINEAR PROBLEM          1.000E-02
     INITIAL VALUE OF TIME AVERAGE FORCE                               1.000E-02
     AVERAGE FORCE     IS TIME AVERAGE FORCE    
     ALTERNATE CRIT. FOR RESIDUAL FORCE     FOR A NONLINEAR PROBLEM    2.000E-02
     CRITERION FOR ZERO FORCE     RELATIVE TO TIME AVRG. FORCE         1.000E-05
     CRITERION FOR RESIDUAL FORCE     WHEN THERE IS ZERO FLUX          1.000E-05
     CRITERION FOR DISP.    CORRECTION WHEN THERE IS ZERO FLUX         1.000E-03
     CRITERION FOR RESIDUAL FORCE     FOR A LINEAR INCREMENT           1.000E-08
     FIELD CONVERSION RATIO                                             1.00    
     CRITERION FOR ZERO FORCE     REL. TO TIME AVRG. MAX. FORCE        1.000E-05
     CRITERION FOR ZERO DISP.    RELATIVE TO CHARACTERISTIC LENGTH     1.000E-08

     VOLUMETRIC STRAIN COMPATIBILITY TOLERANCE FOR HYBRID SOLIDS       1.000E-05
     AXIAL STRAIN COMPATIBILITY TOLERANCE FOR HYBRID BEAMS             1.000E-05
     TRANS. SHEAR STRAIN COMPATIBILITY TOLERANCE FOR HYBRID BEAMS      1.000E-05
     SOFT CONTACT CONSTRAINT COMPATIBILITY TOLERANCE FOR P>P0          5.000E-03
     SOFT CONTACT CONSTRAINT COMPATIBILITY TOLERANCE FOR P=0.0         0.100    
     CONTACT FORCE ERROR TOLERANCE FOR CONVERT SDI=YES                 1.00    
     DISPLACEMENT COMPATIBILITY TOLERANCE FOR DCOUP ELEMENTS           1.000E-05
     ROTATION COMPATIBILITY TOLERANCE FOR DCOUP ELEMENTS               1.000E-05

 EQUILIBRIUM WILL BE CHECKED FOR SEVERE DISCONTINUITY ITERATIONS

 TIME INCREMENTATION CONTROL PARAMETERS:
     FIRST EQUILIBRIUM ITERATION FOR CONSECUTIVE DIVERGENCE CHECK              4
     EQUILIBRIUM ITERATION AT WHICH LOG. CONVERGENCE RATE CHECK BEGINS         8
     EQUILIBRIUM ITERATION AFTER WHICH ALTERNATE RESIDUAL IS USED              9
     MAXIMUM EQUILIBRIUM ITERATIONS ALLOWED                                   16
     EQUILIBRIUM ITERATION COUNT FOR CUT-BACK IN NEXT INCREMENT               10
     MAXIMUM EQUILIB. ITERS IN TWO INCREMENTS FOR TIME INCREMENT INCREASE      4
     MAXIMUM ITERATIONS FOR SEVERE DISCONTINUITIES                            50
     MAXIMUM ATTEMPTS ALLOWED IN AN INCREMENT                                  5
     MAXIMUM DISCON. ITERS IN TWO INCREMENTS FOR TIME INCREMENT INCREASE      50
     MAXIMUM CONTACT AUGMENTATIONS FOR *SURFACE BEHAVIOR,AUGMENTED LAGRANGE   50
     CUT-BACK FACTOR AFTER DIVERGENCE                                 0.2500    
     CUT-BACK FACTOR FOR TOO SLOW CONVERGENCE                         0.5000    
     CUT-BACK FACTOR AFTER TOO MANY EQUILIBRIUM ITERATIONS            0.7500    
     CUT-BACK FACTOR AFTER TOO MANY SEVERE DISCONTINUITY ITERATIONS   0.2500    
     CUT-BACK FACTOR AFTER PROBLEMS IN ELEMENT ASSEMBLY               0.2500    
     INCREASE FACTOR AFTER TWO INCREMENTS THAT CONVERGE QUICKLY        1.500    
     MAX. TIME INCREMENT INCREASE FACTOR ALLOWED                       1.500    
     MAX. TIME INCREMENT INCREASE FACTOR ALLOWED (DYNAMICS)            1.250    
     MAX. TIME INCREMENT INCREASE FACTOR ALLOWED (DIFFUSION)           2.000    
     MINIMUM TIME INCREMENT RATIO FOR EXTRAPOLATION TO OCCUR          0.1000    
     MAX. RATIO OF TIME INCREMENT TO STABILITY LIMIT                   1.000    
     FRACTION OF STABILITY LIMIT FOR NEW TIME INCREMENT               0.9500    
     TIME INCREMENT INCREASE FACTOR BEFORE A TIME POINT                1.000    
     GLOBAL STABILIZATION CONTROL IS NOT USED

          PRINT OF INCREMENT NUMBER, TIME, ETC., EVERY    1  INCREMENTS

     THE MAXIMUM NUMBER OF INCREMENTS IN THIS STEP IS                     100

     LINEAR EXTRAPOLATION WILL BE USED

     DETAILS REGARDING ACTUAL SOLUTION WAVEFRONT REQUESTED

     DETAILED OUTPUT OF DIAGNOSTICS TO DATABASE REQUESTED

     PRINT OF INCREMENT NUMBER, TIME, ETC., TO THE MESSAGE FILE EVERY     1  INCREMENTS

     COLLECTING MODEL CONSTRAINT INFORMATION FOR OVERCONSTRAINT CHECKS

     COLLECTING STEP CONSTRAINT INFORMATION FOR OVERCONSTRAINT CHECKS
 ***********************************
 CURRENT ELEMENT NUMBER::::           1
 NUMBER OF NODES:::           4
 DOFs:::           2
 TOTAL DOF OF ELEMENT:::            8
 ************************************
           1
 AREA1  0.000000000000000E+000
 AREA1  0.000000000000000E+000
 U  0.000000000000000E+000
 U  0.000000000000000E+000
 U  0.000000000000000E+000
 U  0.000000000000000E+000
 U  0.000000000000000E+000
 U  0.000000000000000E+000
 U  0.000000000000000E+000
 U  0.000000000000000E+000
 ***********************************
 CURRENT ELEMENT NUMBER::::           2
 NUMBER OF NODES:::           4
 DOFs:::           2
 TOTAL DOF OF ELEMENT:::            8
 ************************************
           2
 AREA1  0.000000000000000E+000
 AREA1  0.000000000000000E+000
 U  0.000000000000000E+000
 U  0.000000000000000E+000
 U  0.000000000000000E+000
 U  0.000000000000000E+000
 U  0.000000000000000E+000
 U  0.000000000000000E+000
 U  0.000000000000000E+000
 U  0.000000000000000E+000
 ***********************************
 CURRENT ELEMENT NUMBER::::           3
 NUMBER OF NODES:::           4
 DOFs:::           2
 TOTAL DOF OF ELEMENT:::            8
 ************************************
           3
 AREA1  0.000000000000000E+000
 AREA1  0.000000000000000E+000
 U  0.000000000000000E+000
 U  0.000000000000000E+000
 U  0.000000000000000E+000
 U  0.000000000000000E+000
 U  0.000000000000000E+000
 U  0.000000000000000E+000
 U  0.000000000000000E+000
 U  0.000000000000000E+000
 ***********************************
 CURRENT ELEMENT NUMBER::::           4
 NUMBER OF NODES:::           4
 DOFs:::           2
 TOTAL DOF OF ELEMENT:::            8
 ************************************
           4
 AREA1  0.000000000000000E+000
 AREA1  0.000000000000000E+000
 U  0.000000000000000E+000
 U  0.000000000000000E+000
 U  0.000000000000000E+000
 U  0.000000000000000E+000
 U  0.000000000000000E+000
 U  0.000000000000000E+000
 U  0.000000000000000E+000
 U  0.000000000000000E+000
 ***********************************
 CURRENT ELEMENT NUMBER::::           5
 NUMBER OF NODES:::           4
 DOFs:::           2
 TOTAL DOF OF ELEMENT:::            8
 ************************************
           5
 AREA1  0.000000000000000E+000
 AREA1  0.000000000000000E+000
 U  0.000000000000000E+000
 U  0.000000000000000E+000
 U  0.000000000000000E+000
 U  0.000000000000000E+000
 U  0.000000000000000E+000
 U  0.000000000000000E+000
 U  0.000000000000000E+000
 U  0.000000000000000E+000
 ***********************************
 CURRENT ELEMENT NUMBER::::           6
 NUMBER OF NODES:::           4
 DOFs:::           2
 TOTAL DOF OF ELEMENT:::            8
 ************************************
           6
 AREA1  0.000000000000000E+000
 AREA1  0.000000000000000E+000
 U  0.000000000000000E+000
 U  0.000000000000000E+000
 U  0.000000000000000E+000
 U  0.000000000000000E+000
 U  0.000000000000000E+000
 U  0.000000000000000E+000
 U  0.000000000000000E+000
 U  0.000000000000000E+000
 ***********************************
 CURRENT ELEMENT NUMBER::::           7
 NUMBER OF NODES:::           4
 DOFs:::           2
 TOTAL DOF OF ELEMENT:::            8
 ************************************
           7
 AREA1  0.000000000000000E+000
 AREA1  0.000000000000000E+000
 U  0.000000000000000E+000
 U  0.000000000000000E+000
 U  0.000000000000000E+000
 U  0.000000000000000E+000
 U  0.000000000000000E+000
 U  0.000000000000000E+000
 U  0.000000000000000E+000
 U  0.000000000000000E+000
 ***********************************
 CURRENT ELEMENT NUMBER::::           8
 NUMBER OF NODES:::           4
 DOFs:::           2
 TOTAL DOF OF ELEMENT:::            8
 ************************************
           8
 AREA1  0.000000000000000E+000
 AREA1  0.000000000000000E+000
 U  0.000000000000000E+000
 U  0.000000000000000E+000
 U  0.000000000000000E+000
 U  0.000000000000000E+000
 U  0.000000000000000E+000
 U  0.000000000000000E+000
 U  0.000000000000000E+000
 U  0.000000000000000E+000
 ***********************************
 CURRENT ELEMENT NUMBER::::           9
 NUMBER OF NODES:::           4
 DOFs:::           2
 TOTAL DOF OF ELEMENT:::            8
 ************************************
           9
 AREA1  0.000000000000000E+000
 AREA1  0.000000000000000E+000
 U  0.000000000000000E+000
 U  0.000000000000000E+000
 U  0.000000000000000E+000
 U  0.000000000000000E+000
 U  0.000000000000000E+000
 U  0.000000000000000E+000
 U  0.000000000000000E+000
 U  0.000000000000000E+000
 ***********************************
 CURRENT ELEMENT NUMBER::::          10
 NUMBER OF NODES:::           4
 DOFs:::           2
 TOTAL DOF OF ELEMENT:::            8
 ************************************
          10
 AREA1  0.000000000000000E+000
 AREA1  0.000000000000000E+000
 U  0.000000000000000E+000
 U  0.000000000000000E+000
 U  0.000000000000000E+000
 U  0.000000000000000E+000
 U  0.000000000000000E+000
 U  0.000000000000000E+000
 U  0.000000000000000E+000
 U  0.000000000000000E+000
 ***********************************
 CURRENT ELEMENT NUMBER::::          11
 NUMBER OF NODES:::           4
 DOFs:::           2
 TOTAL DOF OF ELEMENT:::            8
 ************************************
          11
 AREA1  0.000000000000000E+000
 AREA1  0.000000000000000E+000
 U  0.000000000000000E+000
 U  0.000000000000000E+000
 U  0.000000000000000E+000
 U  0.000000000000000E+000
 U  0.000000000000000E+000
 U  0.000000000000000E+000
 U  0.000000000000000E+000
 U  0.000000000000000E+000
 ***********************************
 CURRENT ELEMENT NUMBER::::          12
 NUMBER OF NODES:::           4
 DOFs:::           2
 TOTAL DOF OF ELEMENT:::            8
 ************************************
          12
 AREA1  0.000000000000000E+000
 AREA1  0.000000000000000E+000
 U  0.000000000000000E+000
 U  0.000000000000000E+000
 U  0.000000000000000E+000
 U  0.000000000000000E+000
 U  0.000000000000000E+000
 U  0.000000000000000E+000
 U  0.000000000000000E+000
 U  0.000000000000000E+000
 ***********************************
 CURRENT ELEMENT NUMBER::::          13
 NUMBER OF NODES:::           4
 DOFs:::           2
 TOTAL DOF OF ELEMENT:::            8
 ************************************
          13
 AREA1  0.000000000000000E+000
 AREA1  0.000000000000000E+000
 U  0.000000000000000E+000
 U  0.000000000000000E+000
 U  0.000000000000000E+000
 U  0.000000000000000E+000
 U  0.000000000000000E+000
 U  0.000000000000000E+000
 U  0.000000000000000E+000
 U  0.000000000000000E+000
 ***********************************
 CURRENT ELEMENT NUMBER::::          14
 NUMBER OF NODES:::           4
 DOFs:::           2
 TOTAL DOF OF ELEMENT:::            8
 ************************************
          14
 AREA1  0.000000000000000E+000
 AREA1  0.000000000000000E+000
 U  0.000000000000000E+000
 U  0.000000000000000E+000
 U  0.000000000000000E+000
 U  0.000000000000000E+000
 U  0.000000000000000E+000
 U  0.000000000000000E+000
 U  0.000000000000000E+000
 U  0.000000000000000E+000
 ***********************************
 CURRENT ELEMENT NUMBER::::          15
 NUMBER OF NODES:::           4
 DOFs:::           2
 TOTAL DOF OF ELEMENT:::            8
 ************************************
          15
 AREA1  0.000000000000000E+000
 AREA1  0.000000000000000E+000
 U  0.000000000000000E+000
 U  0.000000000000000E+000
 U  0.000000000000000E+000
 U  0.000000000000000E+000
 U  0.000000000000000E+000
 U  0.000000000000000E+000
 U  0.000000000000000E+000
 U  0.000000000000000E+000
 ***********************************
 CURRENT ELEMENT NUMBER::::          16
 NUMBER OF NODES:::           4
 DOFs:::           2
 TOTAL DOF OF ELEMENT:::            8
 ************************************
          16
 AREA1  0.000000000000000E+000
 AREA1  0.000000000000000E+000
 U  0.000000000000000E+000
 U  0.000000000000000E+000
 U  0.000000000000000E+000
 U  0.000000000000000E+000
 U  0.000000000000000E+000
 U  0.000000000000000E+000
 U  0.000000000000000E+000
 U  0.000000000000000E+000
 ***********************************
 CURRENT ELEMENT NUMBER::::          17
 NUMBER OF NODES:::           4
 DOFs:::           2
 TOTAL DOF OF ELEMENT:::            8
 ************************************
          17
 AREA1  0.000000000000000E+000
 AREA1  0.000000000000000E+000
 U  0.000000000000000E+000
 U  0.000000000000000E+000
 U  0.000000000000000E+000
 U  0.000000000000000E+000
 U  0.000000000000000E+000
 U  0.000000000000000E+000
 U  0.000000000000000E+000
 U  0.000000000000000E+000
 ***********************************
 CURRENT ELEMENT NUMBER::::          18
 NUMBER OF NODES:::           4
 DOFs:::           2
 TOTAL DOF OF ELEMENT:::            8
 ************************************
          18
 AREA1  0.000000000000000E+000
 AREA1  0.000000000000000E+000
 U  0.000000000000000E+000
 U  0.000000000000000E+000
 U  0.000000000000000E+000
 U  0.000000000000000E+000
 U  0.000000000000000E+000
 U  0.000000000000000E+000
 U  0.000000000000000E+000
 U  0.000000000000000E+000
 ***********************************
 CURRENT ELEMENT NUMBER::::          19
 NUMBER OF NODES:::           4
 DOFs:::           2
 TOTAL DOF OF ELEMENT:::            8
 ************************************
          19
 AREA1  0.000000000000000E+000
 AREA1  0.000000000000000E+000
 U  0.000000000000000E+000
 U  0.000000000000000E+000
 U  0.000000000000000E+000
 U  0.000000000000000E+000
 U  0.000000000000000E+000
 U  0.000000000000000E+000
 U  0.000000000000000E+000
 U  0.000000000000000E+000
 ***********************************
 CURRENT ELEMENT NUMBER::::          20
 NUMBER OF NODES:::           4
 DOFs:::           2
 TOTAL DOF OF ELEMENT:::            8
 ************************************
          20
 AREA1  0.000000000000000E+000
 AREA1  0.000000000000000E+000
 U  0.000000000000000E+000
 U  0.000000000000000E+000
 U  0.000000000000000E+000
 U  0.000000000000000E+000
 U  0.000000000000000E+000
 U  0.000000000000000E+000
 U  0.000000000000000E+000
 U  0.000000000000000E+000
 ***********************************
 CURRENT ELEMENT NUMBER::::          21
 NUMBER OF NODES:::           4
 DOFs:::           2
 TOTAL DOF OF ELEMENT:::            8
 ************************************
          21
 AREA1  0.000000000000000E+000
 AREA1  0.000000000000000E+000
 U  0.000000000000000E+000
 U  0.000000000000000E+000
 U  0.000000000000000E+000
 U  0.000000000000000E+000
 U  0.000000000000000E+000
 U  0.000000000000000E+000
 U  0.000000000000000E+000
 U  0.000000000000000E+000
 ***********************************
 CURRENT ELEMENT NUMBER::::          22
 NUMBER OF NODES:::           4
 DOFs:::           2
 TOTAL DOF OF ELEMENT:::            8
 ************************************
          22
 AREA1  0.000000000000000E+000
 AREA1  0.000000000000000E+000
 U  0.000000000000000E+000
 U  0.000000000000000E+000
 U  0.000000000000000E+000
 U  0.000000000000000E+000
 U  0.000000000000000E+000
 U  0.000000000000000E+000
 U  0.000000000000000E+000
 U  0.000000000000000E+000
 ***********************************
 CURRENT ELEMENT NUMBER::::          23
 NUMBER OF NODES:::           4
 DOFs:::           2
 TOTAL DOF OF ELEMENT:::            8
 ************************************
          23
 AREA1  0.000000000000000E+000
 AREA1  0.000000000000000E+000
 U  0.000000000000000E+000
 U  0.000000000000000E+000
 U  0.000000000000000E+000
 U  0.000000000000000E+000
 U  0.000000000000000E+000
 U  0.000000000000000E+000
 U  0.000000000000000E+000
 U  0.000000000000000E+000
 ***********************************
 CURRENT ELEMENT NUMBER::::          24
 NUMBER OF NODES:::           4
 DOFs:::           2
 TOTAL DOF OF ELEMENT:::            8
 ************************************
          24
 AREA1  0.000000000000000E+000
 AREA1  0.000000000000000E+000
 U  0.000000000000000E+000
 U  0.000000000000000E+000
 U  0.000000000000000E+000
 U  0.000000000000000E+000
 U  0.000000000000000E+000
 U  0.000000000000000E+000
 U  0.000000000000000E+000
 U  0.000000000000000E+000
 ***********************************
 CURRENT ELEMENT NUMBER::::          25
 NUMBER OF NODES:::           4
 DOFs:::           2
 TOTAL DOF OF ELEMENT:::            8
 ************************************
          25
 AREA1  0.000000000000000E+000
 AREA1  0.000000000000000E+000
 U  0.000000000000000E+000
 U  0.000000000000000E+000
 U  0.000000000000000E+000
 U  0.000000000000000E+000
 U  0.000000000000000E+000
 U  0.000000000000000E+000
 U  0.000000000000000E+000
 U  0.000000000000000E+000
 ***********************************
 CURRENT ELEMENT NUMBER::::          26
 NUMBER OF NODES:::           4
 DOFs:::           2
 TOTAL DOF OF ELEMENT:::            8
 ************************************
          26
 AREA1  0.000000000000000E+000
 AREA1  0.000000000000000E+000
 U  0.000000000000000E+000
 U  0.000000000000000E+000
 U  0.000000000000000E+000
 U  0.000000000000000E+000
 U  0.000000000000000E+000
 U  0.000000000000000E+000
 U  0.000000000000000E+000
 U  0.000000000000000E+000
 ***********************************
 CURRENT ELEMENT NUMBER::::          27
 NUMBER OF NODES:::           4
 DOFs:::           2
 TOTAL DOF OF ELEMENT:::            8
 ************************************
          27
 AREA1  0.000000000000000E+000
 AREA1  0.000000000000000E+000
 U  0.000000000000000E+000
 U  0.000000000000000E+000
 U  0.000000000000000E+000
 U  0.000000000000000E+000
 U  0.000000000000000E+000
 U  0.000000000000000E+000
 U  0.000000000000000E+000
 U  0.000000000000000E+000
 ***********************************
 CURRENT ELEMENT NUMBER::::          28
 NUMBER OF NODES:::           4
 DOFs:::           2
 TOTAL DOF OF ELEMENT:::            8
 ************************************
          28
 AREA1  0.000000000000000E+000
 AREA1  0.000000000000000E+000
 U  0.000000000000000E+000
 U  0.000000000000000E+000
 U  0.000000000000000E+000
 U  0.000000000000000E+000
 U  0.000000000000000E+000
 U  0.000000000000000E+000
 U  0.000000000000000E+000
 U  0.000000000000000E+000
 ***********************************
 CURRENT ELEMENT NUMBER::::          29
 NUMBER OF NODES:::           4
 DOFs:::           2
 TOTAL DOF OF ELEMENT:::            8
 ************************************
          29
 AREA1  0.000000000000000E+000
 AREA1  0.000000000000000E+000
 U  0.000000000000000E+000
 U  0.000000000000000E+000
 U  0.000000000000000E+000
 U  0.000000000000000E+000
 U  0.000000000000000E+000
 U  0.000000000000000E+000
 U  0.000000000000000E+000
 U  0.000000000000000E+000
 ***********************************
 CURRENT ELEMENT NUMBER::::          30
 NUMBER OF NODES:::           4
 DOFs:::           2
 TOTAL DOF OF ELEMENT:::            8
 ************************************
          30
 AREA1  0.000000000000000E+000
 AREA1  0.000000000000000E+000
 U  0.000000000000000E+000
 U  0.000000000000000E+000
 U  0.000000000000000E+000
 U  0.000000000000000E+000
 U  0.000000000000000E+000
 U  0.000000000000000E+000
 U  0.000000000000000E+000
 U  0.000000000000000E+000
 ***********************************
 CURRENT ELEMENT NUMBER::::          31
 NUMBER OF NODES:::           4
 DOFs:::           2
 TOTAL DOF OF ELEMENT:::            8
 ************************************
          31
 AREA1  0.000000000000000E+000
 AREA1  0.000000000000000E+000
 U  0.000000000000000E+000
 U  0.000000000000000E+000
 U  0.000000000000000E+000
 U  0.000000000000000E+000
 U  0.000000000000000E+000
 U  0.000000000000000E+000
 U  0.000000000000000E+000
 U  0.000000000000000E+000
 ***********************************
 CURRENT ELEMENT NUMBER::::          32
 NUMBER OF NODES:::           4
 DOFs:::           2
 TOTAL DOF OF ELEMENT:::            8
 ************************************
          32
 AREA1  0.000000000000000E+000
 AREA1  0.000000000000000E+000
 U  0.000000000000000E+000
 U  0.000000000000000E+000
 U  0.000000000000000E+000
 U  0.000000000000000E+000
 U  0.000000000000000E+000
 U  0.000000000000000E+000
 U  0.000000000000000E+000
 U  0.000000000000000E+000
 ***********************************
 CURRENT ELEMENT NUMBER::::          33
 NUMBER OF NODES:::           4
 DOFs:::           2
 TOTAL DOF OF ELEMENT:::            8
 ************************************
          33
 AREA1  0.000000000000000E+000
 AREA1  0.000000000000000E+000
 U  0.000000000000000E+000
 U  0.000000000000000E+000
 U  0.000000000000000E+000
 U  0.000000000000000E+000
 U  0.000000000000000E+000
 U  0.000000000000000E+000
 U  0.000000000000000E+000
 U  0.000000000000000E+000
 ***********************************
 CURRENT ELEMENT NUMBER::::          34
 NUMBER OF NODES:::           4
 DOFs:::           2
 TOTAL DOF OF ELEMENT:::            8
 ************************************
          34
 AREA1  0.000000000000000E+000
 AREA1  0.000000000000000E+000
 U  0.000000000000000E+000
 U  0.000000000000000E+000
 U  0.000000000000000E+000
 U  0.000000000000000E+000
 U  0.000000000000000E+000
 U  0.000000000000000E+000
 U  0.000000000000000E+000
 U  0.000000000000000E+000
 ***********************************
 CURRENT ELEMENT NUMBER::::          35
 NUMBER OF NODES:::           4
 DOFs:::           2
 TOTAL DOF OF ELEMENT:::            8
 ************************************
          35
 AREA1  0.000000000000000E+000
 AREA1  0.000000000000000E+000
 U  0.000000000000000E+000
 U  0.000000000000000E+000
 U  0.000000000000000E+000
 U  0.000000000000000E+000
 U  0.000000000000000E+000
 U  0.000000000000000E+000
 U  0.000000000000000E+000
 U  0.000000000000000E+000
 ***********************************
 CURRENT ELEMENT NUMBER::::          36
 NUMBER OF NODES:::           4
 DOFs:::           2
 TOTAL DOF OF ELEMENT:::            8
 ************************************
          36
 AREA1  0.000000000000000E+000
 AREA1  0.000000000000000E+000
 U  0.000000000000000E+000
 U  0.000000000000000E+000
 U  0.000000000000000E+000
 U  0.000000000000000E+000
 U  0.000000000000000E+000
 U  0.000000000000000E+000
 U  0.000000000000000E+000
 U  0.000000000000000E+000
 ***********************************
 CURRENT ELEMENT NUMBER::::          37
 NUMBER OF NODES:::           4
 DOFs:::           2
 TOTAL DOF OF ELEMENT:::            8
 ************************************
          37
 AREA1  0.000000000000000E+000
 AREA1  0.000000000000000E+000
 U  0.000000000000000E+000
 U  0.000000000000000E+000
 U  0.000000000000000E+000
 U  0.000000000000000E+000
 U  0.000000000000000E+000
 U  0.000000000000000E+000
 U  0.000000000000000E+000
 U  0.000000000000000E+000
 ***********************************
 CURRENT ELEMENT NUMBER::::          38
 NUMBER OF NODES:::           4
 DOFs:::           2
 TOTAL DOF OF ELEMENT:::            8
 ************************************
          38
 AREA1  0.000000000000000E+000
 AREA1  0.000000000000000E+000
 U  0.000000000000000E+000
 U  0.000000000000000E+000
 U  0.000000000000000E+000
 U  0.000000000000000E+000
 U  0.000000000000000E+000
 U  0.000000000000000E+000
 U  0.000000000000000E+000
 U  0.000000000000000E+000
 ***********************************
 CURRENT ELEMENT NUMBER::::          39
 NUMBER OF NODES:::           4
 DOFs:::           2
 TOTAL DOF OF ELEMENT:::            8
 ************************************
          39
 AREA1  0.000000000000000E+000
 AREA1  0.000000000000000E+000
 U  0.000000000000000E+000
 U  0.000000000000000E+000
 U  0.000000000000000E+000
 U  0.000000000000000E+000
 U  0.000000000000000E+000
 U  0.000000000000000E+000
 U  0.000000000000000E+000
 U  0.000000000000000E+000
 ***********************************
 CURRENT ELEMENT NUMBER::::          40
 NUMBER OF NODES:::           4
 DOFs:::           2
 TOTAL DOF OF ELEMENT:::            8
 ************************************
          40
 AREA1  0.000000000000000E+000
 AREA1  0.000000000000000E+000
 U  0.000000000000000E+000
 U  0.000000000000000E+000
 U  0.000000000000000E+000
 U  0.000000000000000E+000
 U  0.000000000000000E+000
 U  0.000000000000000E+000
 U  0.000000000000000E+000
 U  0.000000000000000E+000
 ***********************************
 CURRENT ELEMENT NUMBER::::          41
 NUMBER OF NODES:::           4
 DOFs:::           2
 TOTAL DOF OF ELEMENT:::            8
 ************************************
          41
 AREA1  0.000000000000000E+000
 AREA1  0.000000000000000E+000
 U  0.000000000000000E+000
 U  0.000000000000000E+000
 U  0.000000000000000E+000
 U  0.000000000000000E+000
 U  0.000000000000000E+000
 U  0.000000000000000E+000
 U  0.000000000000000E+000
 U  0.000000000000000E+000
 ***********************************
 CURRENT ELEMENT NUMBER::::          42
 NUMBER OF NODES:::           4
 DOFs:::           2
 TOTAL DOF OF ELEMENT:::            8
 ************************************
          42
 AREA1  0.000000000000000E+000
 AREA1  0.000000000000000E+000
 U  0.000000000000000E+000
 U  0.000000000000000E+000
 U  0.000000000000000E+000
 U  0.000000000000000E+000
 U  0.000000000000000E+000
 U  0.000000000000000E+000
 U  0.000000000000000E+000
 U  0.000000000000000E+000
 ***********************************
 CURRENT ELEMENT NUMBER::::          43
 NUMBER OF NODES:::           4
 DOFs:::           2
 TOTAL DOF OF ELEMENT:::            8
 ************************************
          43
 AREA1  0.000000000000000E+000
 AREA1  0.000000000000000E+000
 U  0.000000000000000E+000
 U  0.000000000000000E+000
 U  0.000000000000000E+000
 U  0.000000000000000E+000
 U  0.000000000000000E+000
 U  0.000000000000000E+000
 U  0.000000000000000E+000
 U  0.000000000000000E+000
 ***********************************
 CURRENT ELEMENT NUMBER::::          44
 NUMBER OF NODES:::           4
 DOFs:::           2
 TOTAL DOF OF ELEMENT:::            8
 ************************************
          44
 AREA1  0.000000000000000E+000
 AREA1  0.000000000000000E+000
 U  0.000000000000000E+000
 U  0.000000000000000E+000
 U  0.000000000000000E+000
 U  0.000000000000000E+000
 U  0.000000000000000E+000
 U  0.000000000000000E+000
 U  0.000000000000000E+000
 U  0.000000000000000E+000
 ***********************************
 CURRENT ELEMENT NUMBER::::          45
 NUMBER OF NODES:::           4
 DOFs:::           2
 TOTAL DOF OF ELEMENT:::            8
 ************************************
          45
 AREA1  0.000000000000000E+000
 AREA1  0.000000000000000E+000
 U  0.000000000000000E+000
 U  0.000000000000000E+000
 U  0.000000000000000E+000
 U  0.000000000000000E+000
 U  0.000000000000000E+000
 U  0.000000000000000E+000
 U  0.000000000000000E+000
 U  0.000000000000000E+000
 ***********************************
 CURRENT ELEMENT NUMBER::::          46
 NUMBER OF NODES:::           4
 DOFs:::           2
 TOTAL DOF OF ELEMENT:::            8
 ************************************
          46
 AREA1  0.000000000000000E+000
 AREA1  0.000000000000000E+000
 U  0.000000000000000E+000
 U  0.000000000000000E+000
 U  0.000000000000000E+000
 U  0.000000000000000E+000
 U  0.000000000000000E+000
 U  0.000000000000000E+000
 U  0.000000000000000E+000
 U  0.000000000000000E+000
 ***********************************
 CURRENT ELEMENT NUMBER::::          47
 NUMBER OF NODES:::           4
 DOFs:::           2
 TOTAL DOF OF ELEMENT:::            8
 ************************************
          47
 AREA1  0.000000000000000E+000
 AREA1  0.000000000000000E+000
 U  0.000000000000000E+000
 U  0.000000000000000E+000
 U  0.000000000000000E+000
 U  0.000000000000000E+000
 U  0.000000000000000E+000
 U  0.000000000000000E+000
 U  0.000000000000000E+000
 U  0.000000000000000E+000
 ***********************************
 CURRENT ELEMENT NUMBER::::          48
 NUMBER OF NODES:::           4
 DOFs:::           2
 TOTAL DOF OF ELEMENT:::            8
 ************************************
          48
 AREA1  0.000000000000000E+000
 AREA1  0.000000000000000E+000
 U  0.000000000000000E+000
 U  0.000000000000000E+000
 U  0.000000000000000E+000
 U  0.000000000000000E+000
 U  0.000000000000000E+000
 U  0.000000000000000E+000
 U  0.000000000000000E+000
 U  0.000000000000000E+000
 ***********************************
 CURRENT ELEMENT NUMBER::::          49
 NUMBER OF NODES:::           4
 DOFs:::           2
 TOTAL DOF OF ELEMENT:::            8
 ************************************
          49
 AREA1  0.000000000000000E+000
 AREA1  0.000000000000000E+000
 U  0.000000000000000E+000
 U  0.000000000000000E+000
 U  0.000000000000000E+000
 U  0.000000000000000E+000
 U  0.000000000000000E+000
 U  0.000000000000000E+000
 U  0.000000000000000E+000
 U  0.000000000000000E+000
 ***********************************
 CURRENT ELEMENT NUMBER::::          50
 NUMBER OF NODES:::           4
 DOFs:::           2
 TOTAL DOF OF ELEMENT:::            8
 ************************************
          50
 AREA1  0.000000000000000E+000
 AREA1  0.000000000000000E+000
 U  0.000000000000000E+000
 U  0.000000000000000E+000
 U  0.000000000000000E+000
 U  0.000000000000000E+000
 U  0.000000000000000E+000
 U  0.000000000000000E+000
 U  0.000000000000000E+000
 U  0.000000000000000E+000
 ***********************************
 CURRENT ELEMENT NUMBER::::          51
 NUMBER OF NODES:::           4
 DOFs:::           2
 TOTAL DOF OF ELEMENT:::            8
 ************************************
          51
 AREA1  0.000000000000000E+000
 AREA1  0.000000000000000E+000
 U  0.000000000000000E+000
 U  0.000000000000000E+000
 U  0.000000000000000E+000
 U  0.000000000000000E+000
 U  0.000000000000000E+000
 U  0.000000000000000E+000
 U  0.000000000000000E+000
 U  0.000000000000000E+000
 ***********************************
 CURRENT ELEMENT NUMBER::::          52
 NUMBER OF NODES:::           4
 DOFs:::           2
 TOTAL DOF OF ELEMENT:::            8
 ************************************
          52
 AREA1  0.000000000000000E+000
 AREA1  0.000000000000000E+000
 U  0.000000000000000E+000
 U  0.000000000000000E+000
 U  0.000000000000000E+000
 U  0.000000000000000E+000
 U  0.000000000000000E+000
 U  0.000000000000000E+000
 U  0.000000000000000E+000
 U  0.000000000000000E+000
 ***********************************
 CURRENT ELEMENT NUMBER::::          53
 NUMBER OF NODES:::           4
 DOFs:::           2
 TOTAL DOF OF ELEMENT:::            8
 ************************************
          53
 AREA1  0.000000000000000E+000
 AREA1  0.000000000000000E+000
 U  0.000000000000000E+000
 U  0.000000000000000E+000
 U  0.000000000000000E+000
 U  0.000000000000000E+000
 U  0.000000000000000E+000
 U  0.000000000000000E+000
 U  0.000000000000000E+000
 U  0.000000000000000E+000
 ***********************************
 CURRENT ELEMENT NUMBER::::          54
 NUMBER OF NODES:::           4
 DOFs:::           2
 TOTAL DOF OF ELEMENT:::            8
 ************************************
          54
 AREA1  0.000000000000000E+000
 AREA1  0.000000000000000E+000
 U  0.000000000000000E+000
 U  0.000000000000000E+000
 U  0.000000000000000E+000
 U  0.000000000000000E+000
 U  0.000000000000000E+000
 U  0.000000000000000E+000
 U  0.000000000000000E+000
 U  0.000000000000000E+000
 ***********************************
 CURRENT ELEMENT NUMBER::::          55
 NUMBER OF NODES:::           4
 DOFs:::           2
 TOTAL DOF OF ELEMENT:::            8
 ************************************
          55
 AREA1  0.000000000000000E+000
 AREA1  0.000000000000000E+000
 U  0.000000000000000E+000
 U  0.000000000000000E+000
 U  0.000000000000000E+000
 U  0.000000000000000E+000
 U  0.000000000000000E+000
 U  0.000000000000000E+000
 U  0.000000000000000E+000
 U  0.000000000000000E+000
 ***********************************
 CURRENT ELEMENT NUMBER::::          56
 NUMBER OF NODES:::           4
 DOFs:::           2
 TOTAL DOF OF ELEMENT:::            8
 ************************************
          56
 AREA1  0.000000000000000E+000
 AREA1  0.000000000000000E+000
 U  0.000000000000000E+000
 U  0.000000000000000E+000
 U  0.000000000000000E+000
 U  0.000000000000000E+000
 U  0.000000000000000E+000
 U  0.000000000000000E+000
 U  0.000000000000000E+000
 U  0.000000000000000E+000
 ***********************************
 CURRENT ELEMENT NUMBER::::          57
 NUMBER OF NODES:::           4
 DOFs:::           2
 TOTAL DOF OF ELEMENT:::            8
 ************************************
          57
 AREA1  0.000000000000000E+000
 AREA1  0.000000000000000E+000
 U  0.000000000000000E+000
 U  0.000000000000000E+000
 U  0.000000000000000E+000
 U  0.000000000000000E+000
 U  0.000000000000000E+000
 U  0.000000000000000E+000
 U  0.000000000000000E+000
 U  0.000000000000000E+000
 ***********************************
 CURRENT ELEMENT NUMBER::::          58
 NUMBER OF NODES:::           4
 DOFs:::           2
 TOTAL DOF OF ELEMENT:::            8
 ************************************
          58
 AREA1  0.000000000000000E+000
 AREA1  0.000000000000000E+000
 U  0.000000000000000E+000
 U  0.000000000000000E+000
 U  0.000000000000000E+000
 U  0.000000000000000E+000
 U  0.000000000000000E+000
 U  0.000000000000000E+000
 U  0.000000000000000E+000
 U  0.000000000000000E+000
 ***********************************
 CURRENT ELEMENT NUMBER::::          59
 NUMBER OF NODES:::           4
 DOFs:::           2
 TOTAL DOF OF ELEMENT:::            8
 ************************************
          59
 AREA1  0.000000000000000E+000
 AREA1  0.000000000000000E+000
 U  0.000000000000000E+000
 U  0.000000000000000E+000
 U  0.000000000000000E+000
 U  0.000000000000000E+000
 U  0.000000000000000E+000
 U  0.000000000000000E+000
 U  0.000000000000000E+000
 U  0.000000000000000E+000
 ***********************************
 CURRENT ELEMENT NUMBER::::          60
 NUMBER OF NODES:::           4
 DOFs:::           2
 TOTAL DOF OF ELEMENT:::            8
 ************************************
          60
 AREA1  0.000000000000000E+000
 AREA1  0.000000000000000E+000
 U  0.000000000000000E+000
 U  0.000000000000000E+000
 U  0.000000000000000E+000
 U  0.000000000000000E+000
 U  0.000000000000000E+000
 U  0.000000000000000E+000
 U  0.000000000000000E+000
 U  0.000000000000000E+000
 ***********************************
 CURRENT ELEMENT NUMBER::::          61
 NUMBER OF NODES:::           4
 DOFs:::           2
 TOTAL DOF OF ELEMENT:::            8
 ************************************
          61
 AREA1  0.000000000000000E+000
 AREA1  0.000000000000000E+000
 U  0.000000000000000E+000
 U  0.000000000000000E+000
 U  0.000000000000000E+000
 U  0.000000000000000E+000
 U  0.000000000000000E+000
 U  0.000000000000000E+000
 U  0.000000000000000E+000
 U  0.000000000000000E+000
 ***********************************
 CURRENT ELEMENT NUMBER::::          62
 NUMBER OF NODES:::           4
 DOFs:::           2
 TOTAL DOF OF ELEMENT:::            8
 ************************************
          62
 AREA1  0.000000000000000E+000
 AREA1  0.000000000000000E+000
 U  0.000000000000000E+000
 U  0.000000000000000E+000
 U  0.000000000000000E+000
 U  0.000000000000000E+000
 U  0.000000000000000E+000
 U  0.000000000000000E+000
 U  0.000000000000000E+000
 U  0.000000000000000E+000
 ***********************************
 CURRENT ELEMENT NUMBER::::          63
 NUMBER OF NODES:::           4
 DOFs:::           2
 TOTAL DOF OF ELEMENT:::            8
 ************************************
          63
 AREA1  0.000000000000000E+000
 AREA1  0.000000000000000E+000
 U  0.000000000000000E+000
 U  0.000000000000000E+000
 U  0.000000000000000E+000
 U  0.000000000000000E+000
 U  0.000000000000000E+000
 U  0.000000000000000E+000
 U  0.000000000000000E+000
 U  0.000000000000000E+000
 ***********************************
 CURRENT ELEMENT NUMBER::::          64
 NUMBER OF NODES:::           4
 DOFs:::           2
 TOTAL DOF OF ELEMENT:::            8
 ************************************
          64
 AREA1  0.000000000000000E+000
 AREA1  0.000000000000000E+000
 U  0.000000000000000E+000
 U  0.000000000000000E+000
 U  0.000000000000000E+000
 U  0.000000000000000E+000
 U  0.000000000000000E+000
 U  0.000000000000000E+000
 U  0.000000000000000E+000
 U  0.000000000000000E+000
 ***********************************
 CURRENT ELEMENT NUMBER::::          65
 NUMBER OF NODES:::           4
 DOFs:::           2
 TOTAL DOF OF ELEMENT:::            8
 ************************************
          65
 AREA1  0.000000000000000E+000
 AREA1  0.000000000000000E+000
 U  0.000000000000000E+000
 U  0.000000000000000E+000
 U  0.000000000000000E+000
 U  0.000000000000000E+000
 U  0.000000000000000E+000
 U  0.000000000000000E+000
 U  0.000000000000000E+000
 U  0.000000000000000E+000
 ***********************************
 CURRENT ELEMENT NUMBER::::          66
 NUMBER OF NODES:::           4
 DOFs:::           2
 TOTAL DOF OF ELEMENT:::            8
 ************************************
          66
 AREA1  0.000000000000000E+000
 AREA1  0.000000000000000E+000
 U  0.000000000000000E+000
 U  0.000000000000000E+000
 U  0.000000000000000E+000
 U  0.000000000000000E+000
 U  0.000000000000000E+000
 U  0.000000000000000E+000
 U  0.000000000000000E+000
 U  0.000000000000000E+000
 ***********************************
 CURRENT ELEMENT NUMBER::::          67
 NUMBER OF NODES:::           4
 DOFs:::           2
 TOTAL DOF OF ELEMENT:::            8
 ************************************
          67
 AREA1  0.000000000000000E+000
 AREA1  0.000000000000000E+000
 U  0.000000000000000E+000
 U  0.000000000000000E+000
 U  0.000000000000000E+000
 U  0.000000000000000E+000
 U  0.000000000000000E+000
 U  0.000000000000000E+000
 U  0.000000000000000E+000
 U  0.000000000000000E+000
 ***********************************
 CURRENT ELEMENT NUMBER::::          68
 NUMBER OF NODES:::           4
 DOFs:::           2
 TOTAL DOF OF ELEMENT:::            8
 ************************************
          68
 AREA1  0.000000000000000E+000
 AREA1  0.000000000000000E+000
 U  0.000000000000000E+000
 U  0.000000000000000E+000
 U  0.000000000000000E+000
 U  0.000000000000000E+000
 U  0.000000000000000E+000
 U  0.000000000000000E+000
 U  0.000000000000000E+000
 U  0.000000000000000E+000
 ***********************************
 CURRENT ELEMENT NUMBER::::          69
 NUMBER OF NODES:::           4
 DOFs:::           2
 TOTAL DOF OF ELEMENT:::            8
 ************************************
          69
 AREA1  0.000000000000000E+000
 AREA1  0.000000000000000E+000
 U  0.000000000000000E+000
 U  0.000000000000000E+000
 U  0.000000000000000E+000
 U  0.000000000000000E+000
 U  0.000000000000000E+000
 U  0.000000000000000E+000
 U  0.000000000000000E+000
 U  0.000000000000000E+000
 ***********************************
 CURRENT ELEMENT NUMBER::::          70
 NUMBER OF NODES:::           4
 DOFs:::           2
 TOTAL DOF OF ELEMENT:::            8
 ************************************
          70
 AREA1  0.000000000000000E+000
 AREA1  0.000000000000000E+000
 U  0.000000000000000E+000
 U  0.000000000000000E+000
 U  0.000000000000000E+000
 U  0.000000000000000E+000
 U  0.000000000000000E+000
 U  0.000000000000000E+000
 U  0.000000000000000E+000
 U  0.000000000000000E+000
 ***********************************
 CURRENT ELEMENT NUMBER::::          71
 NUMBER OF NODES:::           4
 DOFs:::           2
 TOTAL DOF OF ELEMENT:::            8
 ************************************
          71
 AREA1  0.000000000000000E+000
 AREA1  0.000000000000000E+000
 U  0.000000000000000E+000
 U  0.000000000000000E+000
 U  0.000000000000000E+000
 U  0.000000000000000E+000
 U  0.000000000000000E+000
 U  0.000000000000000E+000
 U  0.000000000000000E+000
 U  0.000000000000000E+000
 ***********************************
 CURRENT ELEMENT NUMBER::::          72
 NUMBER OF NODES:::           4
 DOFs:::           2
 TOTAL DOF OF ELEMENT:::            8
 ************************************
          72
 AREA1  0.000000000000000E+000
 AREA1  0.000000000000000E+000
 U  0.000000000000000E+000
 U  0.000000000000000E+000
 U  0.000000000000000E+000
 U  0.000000000000000E+000
 U  0.000000000000000E+000
 U  0.000000000000000E+000
 U  0.000000000000000E+000
 U  0.000000000000000E+000
 ***********************************
 CURRENT ELEMENT NUMBER::::          73
 NUMBER OF NODES:::           4
 DOFs:::           2
 TOTAL DOF OF ELEMENT:::            8
 ************************************
          73
 AREA1  0.000000000000000E+000
 AREA1  0.000000000000000E+000
 U  0.000000000000000E+000
 U  0.000000000000000E+000
 U  0.000000000000000E+000
 U  0.000000000000000E+000
 U  0.000000000000000E+000
 U  0.000000000000000E+000
 U  0.000000000000000E+000
 U  0.000000000000000E+000
 ***********************************
 CURRENT ELEMENT NUMBER::::          74
 NUMBER OF NODES:::           4
 DOFs:::           2
 TOTAL DOF OF ELEMENT:::            8
 ************************************
          74
 AREA1  0.000000000000000E+000
 AREA1  0.000000000000000E+000
 U  0.000000000000000E+000
 U  0.000000000000000E+000
 U  0.000000000000000E+000
 U  0.000000000000000E+000
 U  0.000000000000000E+000
 U  0.000000000000000E+000
 U  0.000000000000000E+000
 U  0.000000000000000E+000
 ***********************************
 CURRENT ELEMENT NUMBER::::          75
 NUMBER OF NODES:::           4
 DOFs:::           2
 TOTAL DOF OF ELEMENT:::            8
 ************************************
          75
 AREA1  0.000000000000000E+000
 AREA1  0.000000000000000E+000
 U  0.000000000000000E+000
 U  0.000000000000000E+000
 U  0.000000000000000E+000
 U  0.000000000000000E+000
 U  0.000000000000000E+000
 U  0.000000000000000E+000
 U  0.000000000000000E+000
 U  0.000000000000000E+000
 ***********************************
 CURRENT ELEMENT NUMBER::::          76
 NUMBER OF NODES:::           4
 DOFs:::           2
 TOTAL DOF OF ELEMENT:::            8
 ************************************
          76
 AREA1  0.000000000000000E+000
 AREA1  0.000000000000000E+000
 U  0.000000000000000E+000
 U  0.000000000000000E+000
 U  0.000000000000000E+000
 U  0.000000000000000E+000
 U  0.000000000000000E+000
 U  0.000000000000000E+000
 U  0.000000000000000E+000
 U  0.000000000000000E+000
 ***********************************
 CURRENT ELEMENT NUMBER::::          77
 NUMBER OF NODES:::           4
 DOFs:::           2
 TOTAL DOF OF ELEMENT:::            8
 ************************************
          77
 AREA1  0.000000000000000E+000
 AREA1  0.000000000000000E+000
 U  0.000000000000000E+000
 U  0.000000000000000E+000
 U  0.000000000000000E+000
 U  0.000000000000000E+000
 U  0.000000000000000E+000
 U  0.000000000000000E+000
 U  0.000000000000000E+000
 U  0.000000000000000E+000
 ***********************************
 CURRENT ELEMENT NUMBER::::          78
 NUMBER OF NODES:::           4
 DOFs:::           2
 TOTAL DOF OF ELEMENT:::            8
 ************************************
          78
 AREA1  0.000000000000000E+000
 AREA1  0.000000000000000E+000
 U  0.000000000000000E+000
 U  0.000000000000000E+000
 U  0.000000000000000E+000
 U  0.000000000000000E+000
 U  0.000000000000000E+000
 U  0.000000000000000E+000
 U  0.000000000000000E+000
 U  0.000000000000000E+000
 ***********************************
 CURRENT ELEMENT NUMBER::::          79
 NUMBER OF NODES:::           4
 DOFs:::           2
 TOTAL DOF OF ELEMENT:::            8
 ************************************
          79
 AREA1  0.000000000000000E+000
 AREA1  0.000000000000000E+000
 U  0.000000000000000E+000
 U  0.000000000000000E+000
 U  0.000000000000000E+000
 U  0.000000000000000E+000
 U  0.000000000000000E+000
 U  0.000000000000000E+000
 U  0.000000000000000E+000
 U  0.000000000000000E+000
 ***********************************
 CURRENT ELEMENT NUMBER::::          80
 NUMBER OF NODES:::           4
 DOFs:::           2
 TOTAL DOF OF ELEMENT:::            8
 ************************************
          80
 AREA1  0.000000000000000E+000
 AREA1  0.000000000000000E+000
 U  0.000000000000000E+000
 U  0.000000000000000E+000
 U  0.000000000000000E+000
 U  0.000000000000000E+000
 U  0.000000000000000E+000
 U  0.000000000000000E+000
 U  0.000000000000000E+000
 U  0.000000000000000E+000
 ***********************************
 CURRENT ELEMENT NUMBER::::          81
 NUMBER OF NODES:::           4
 DOFs:::           2
 TOTAL DOF OF ELEMENT:::            8
 ************************************
          81
 AREA1  0.000000000000000E+000
 AREA1  0.000000000000000E+000
 U  0.000000000000000E+000
 U  0.000000000000000E+000
 U  0.000000000000000E+000
 U  0.000000000000000E+000
 U  0.000000000000000E+000
 U  0.000000000000000E+000
 U  0.000000000000000E+000
 U  0.000000000000000E+000
 ***********************************
 CURRENT ELEMENT NUMBER::::          82
 NUMBER OF NODES:::           4
 DOFs:::           2
 TOTAL DOF OF ELEMENT:::            8
 ************************************
          82
 AREA1  0.000000000000000E+000
 AREA1  0.000000000000000E+000
 U  0.000000000000000E+000
 U  0.000000000000000E+000
 U  0.000000000000000E+000
 U  0.000000000000000E+000
 U  0.000000000000000E+000
 U  0.000000000000000E+000
 U  0.000000000000000E+000
 U  0.000000000000000E+000
 ***********************************
 CURRENT ELEMENT NUMBER::::          83
 NUMBER OF NODES:::           4
 DOFs:::           2
 TOTAL DOF OF ELEMENT:::            8
 ************************************
          83
 AREA1  0.000000000000000E+000
 AREA1  0.000000000000000E+000
 U  0.000000000000000E+000
 U  0.000000000000000E+000
 U  0.000000000000000E+000
 U  0.000000000000000E+000
 U  0.000000000000000E+000
 U  0.000000000000000E+000
 U  0.000000000000000E+000
 U  0.000000000000000E+000
 ***********************************
 CURRENT ELEMENT NUMBER::::          84
 NUMBER OF NODES:::           4
 DOFs:::           2
 TOTAL DOF OF ELEMENT:::            8
 ************************************
          84
 AREA1  0.000000000000000E+000
 AREA1  0.000000000000000E+000
 U  0.000000000000000E+000
 U  0.000000000000000E+000
 U  0.000000000000000E+000
 U  0.000000000000000E+000
 U  0.000000000000000E+000
 U  0.000000000000000E+000
 U  0.000000000000000E+000
 U  0.000000000000000E+000
 ***********************************
 CURRENT ELEMENT NUMBER::::          85
 NUMBER OF NODES:::           4
 DOFs:::           2
 TOTAL DOF OF ELEMENT:::            8
 ************************************
          85
 AREA1  0.000000000000000E+000
 AREA1  0.000000000000000E+000
 U  0.000000000000000E+000
 U  0.000000000000000E+000
 U  0.000000000000000E+000
 U  0.000000000000000E+000
 U  0.000000000000000E+000
 U  0.000000000000000E+000
 U  0.000000000000000E+000
 U  0.000000000000000E+000
 ***********************************
 CURRENT ELEMENT NUMBER::::          86
 NUMBER OF NODES:::           4
 DOFs:::           2
 TOTAL DOF OF ELEMENT:::            8
 ************************************
          86
 AREA1  0.000000000000000E+000
 AREA1  0.000000000000000E+000
 U  0.000000000000000E+000
 U  0.000000000000000E+000
 U  0.000000000000000E+000
 U  0.000000000000000E+000
 U  0.000000000000000E+000
 U  0.000000000000000E+000
 U  0.000000000000000E+000
 U  0.000000000000000E+000
 ***********************************
 CURRENT ELEMENT NUMBER::::          87
 NUMBER OF NODES:::           4
 DOFs:::           2
 TOTAL DOF OF ELEMENT:::            8
 ************************************
          87
 AREA1  0.000000000000000E+000
 AREA1  0.000000000000000E+000
 U  0.000000000000000E+000
 U  0.000000000000000E+000
 U  0.000000000000000E+000
 U  0.000000000000000E+000
 U  0.000000000000000E+000
 U  0.000000000000000E+000
 U  0.000000000000000E+000
 U  0.000000000000000E+000
 ***********************************
 CURRENT ELEMENT NUMBER::::          88
 NUMBER OF NODES:::           4
 DOFs:::           2
 TOTAL DOF OF ELEMENT:::            8
 ************************************
          88
 AREA1  0.000000000000000E+000
 AREA1  0.000000000000000E+000
 U  0.000000000000000E+000
 U  0.000000000000000E+000
 U  0.000000000000000E+000
 U  0.000000000000000E+000
 U  0.000000000000000E+000
 U  0.000000000000000E+000
 U  0.000000000000000E+000
 U  0.000000000000000E+000
 ***********************************
 CURRENT ELEMENT NUMBER::::          89
 NUMBER OF NODES:::           4
 DOFs:::           2
 TOTAL DOF OF ELEMENT:::            8
 ************************************
          89
 AREA1  0.000000000000000E+000
 AREA1  0.000000000000000E+000
 U  0.000000000000000E+000
 U  0.000000000000000E+000
 U  0.000000000000000E+000
 U  0.000000000000000E+000
 U  0.000000000000000E+000
 U  0.000000000000000E+000
 U  0.000000000000000E+000
 U  0.000000000000000E+000
 ***********************************
 CURRENT ELEMENT NUMBER::::          90
 NUMBER OF NODES:::           4
 DOFs:::           2
 TOTAL DOF OF ELEMENT:::            8
 ************************************
          90
 AREA1  0.000000000000000E+000
 AREA1  0.000000000000000E+000
 U  0.000000000000000E+000
 U  0.000000000000000E+000
 U  0.000000000000000E+000
 U  0.000000000000000E+000
 U  0.000000000000000E+000
 U  0.000000000000000E+000
 U  0.000000000000000E+000
 U  0.000000000000000E+000
 ***********************************
 CURRENT ELEMENT NUMBER::::          91
 NUMBER OF NODES:::           4
 DOFs:::           2
 TOTAL DOF OF ELEMENT:::            8
 ************************************
          91
 AREA1  0.000000000000000E+000
 AREA1  0.000000000000000E+000
 U  0.000000000000000E+000
 U  0.000000000000000E+000
 U  0.000000000000000E+000
 U  0.000000000000000E+000
 U  0.000000000000000E+000
 U  0.000000000000000E+000
 U  0.000000000000000E+000
 U  0.000000000000000E+000
 ***********************************
 CURRENT ELEMENT NUMBER::::          92
 NUMBER OF NODES:::           4
 DOFs:::           2
 TOTAL DOF OF ELEMENT:::            8
 ************************************
          92
 AREA1  0.000000000000000E+000
 AREA1  0.000000000000000E+000
 U  0.000000000000000E+000
 U  0.000000000000000E+000
 U  0.000000000000000E+000
 U  0.000000000000000E+000
 U  0.000000000000000E+000
 U  0.000000000000000E+000
 U  0.000000000000000E+000
 U  0.000000000000000E+000
 ***********************************
 CURRENT ELEMENT NUMBER::::          93
 NUMBER OF NODES:::           4
 DOFs:::           2
 TOTAL DOF OF ELEMENT:::            8
 ************************************
          93
 AREA1  0.000000000000000E+000
 AREA1  0.000000000000000E+000
 U  0.000000000000000E+000
 U  0.000000000000000E+000
 U  0.000000000000000E+000
 U  0.000000000000000E+000
 U  0.000000000000000E+000
 U  0.000000000000000E+000
 U  0.000000000000000E+000
 U  0.000000000000000E+000
 ***********************************
 CURRENT ELEMENT NUMBER::::          94
 NUMBER OF NODES:::           4
 DOFs:::           2
 TOTAL DOF OF ELEMENT:::            8
 ************************************
          94
 AREA1  0.000000000000000E+000
 AREA1  0.000000000000000E+000
 U  0.000000000000000E+000
 U  0.000000000000000E+000
 U  0.000000000000000E+000
 U  0.000000000000000E+000
 U  0.000000000000000E+000
 U  0.000000000000000E+000
 U  0.000000000000000E+000
 U  0.000000000000000E+000
 ***********************************
 CURRENT ELEMENT NUMBER::::          95
 NUMBER OF NODES:::           4
 DOFs:::           2
 TOTAL DOF OF ELEMENT:::            8
 ************************************
          95
 AREA1  0.000000000000000E+000
 AREA1  0.000000000000000E+000
 U  0.000000000000000E+000
 U  0.000000000000000E+000
 U  0.000000000000000E+000
 U  0.000000000000000E+000
 U  0.000000000000000E+000
 U  0.000000000000000E+000
 U  0.000000000000000E+000
 U  0.000000000000000E+000
 ***********************************
 CURRENT ELEMENT NUMBER::::          96
 NUMBER OF NODES:::           4
 DOFs:::           2
 TOTAL DOF OF ELEMENT:::            8
 ************************************
          96
 AREA1  0.000000000000000E+000
 AREA1  0.000000000000000E+000
 U  0.000000000000000E+000
 U  0.000000000000000E+000
 U  0.000000000000000E+000
 U  0.000000000000000E+000
 U  0.000000000000000E+000
 U  0.000000000000000E+000
 U  0.000000000000000E+000
 U  0.000000000000000E+000
 ***********************************
 CURRENT ELEMENT NUMBER::::          97
 NUMBER OF NODES:::           4
 DOFs:::           2
 TOTAL DOF OF ELEMENT:::            8
 ************************************
          97
 AREA1  0.000000000000000E+000
 AREA1  0.000000000000000E+000
 U  0.000000000000000E+000
 U  0.000000000000000E+000
 U  0.000000000000000E+000
 U  0.000000000000000E+000
 U  0.000000000000000E+000
 U  0.000000000000000E+000
 U  0.000000000000000E+000
 U  0.000000000000000E+000
 ***********************************
 CURRENT ELEMENT NUMBER::::          98
 NUMBER OF NODES:::           4
 DOFs:::           2
 TOTAL DOF OF ELEMENT:::            8
 ************************************
          98
 AREA1  0.000000000000000E+000
 AREA1  0.000000000000000E+000
 U  0.000000000000000E+000
 U  0.000000000000000E+000
 U  0.000000000000000E+000
 U  0.000000000000000E+000
 U  0.000000000000000E+000
 U  0.000000000000000E+000
 U  0.000000000000000E+000
 U  0.000000000000000E+000
 ***********************************
 CURRENT ELEMENT NUMBER::::          99
 NUMBER OF NODES:::           4
 DOFs:::           2
 TOTAL DOF OF ELEMENT:::            8
 ************************************
          99
 AREA1  0.000000000000000E+000
 AREA1  0.000000000000000E+000
 U  0.000000000000000E+000
 U  0.000000000000000E+000
 U  0.000000000000000E+000
 U  0.000000000000000E+000
 U  0.000000000000000E+000
 U  0.000000000000000E+000
 U  0.000000000000000E+000
 U  0.000000000000000E+000
 ***********************************
 CURRENT ELEMENT NUMBER::::         100
 NUMBER OF NODES:::           4
 DOFs:::           2
 TOTAL DOF OF ELEMENT:::            8
 ************************************
         100
 AREA1  0.000000000000000E+000
 AREA1  0.000000000000000E+000
 U  0.000000000000000E+000
 U  0.000000000000000E+000
 U  0.000000000000000E+000
 U  0.000000000000000E+000
 U  0.000000000000000E+000
 U  0.000000000000000E+000
 U  0.000000000000000E+000
 U  0.000000000000000E+000
 ***********************************
 CURRENT ELEMENT NUMBER::::         101
 NUMBER OF NODES:::           4
 DOFs:::           2
 TOTAL DOF OF ELEMENT:::            8
 ************************************
         101
 AREA1  0.000000000000000E+000
 AREA1  0.000000000000000E+000
 U  0.000000000000000E+000
 U  0.000000000000000E+000
 U  0.000000000000000E+000
 U  0.000000000000000E+000
 U  0.000000000000000E+000
 U  0.000000000000000E+000
 U  0.000000000000000E+000
 U  0.000000000000000E+000
 ***********************************
 CURRENT ELEMENT NUMBER::::         102
 NUMBER OF NODES:::           4
 DOFs:::           2
 TOTAL DOF OF ELEMENT:::            8
 ************************************
         102
 AREA1  0.000000000000000E+000
 AREA1  0.000000000000000E+000
 U  0.000000000000000E+000
 U  0.000000000000000E+000
 U  0.000000000000000E+000
 U  0.000000000000000E+000
 U  0.000000000000000E+000
 U  0.000000000000000E+000
 U  0.000000000000000E+000
 U  0.000000000000000E+000
 ***********************************
 CURRENT ELEMENT NUMBER::::         103
 NUMBER OF NODES:::           4
 DOFs:::           2
 TOTAL DOF OF ELEMENT:::            8
 ************************************
         103
 AREA1  0.000000000000000E+000
 AREA1  0.000000000000000E+000
 U  0.000000000000000E+000
 U  0.000000000000000E+000
 U  0.000000000000000E+000
 U  0.000000000000000E+000
 U  0.000000000000000E+000
 U  0.000000000000000E+000
 U  0.000000000000000E+000
 U  0.000000000000000E+000
 ***********************************
 CURRENT ELEMENT NUMBER::::         104
 NUMBER OF NODES:::           4
 DOFs:::           2
 TOTAL DOF OF ELEMENT:::            8
 ************************************
         104
 AREA1  0.000000000000000E+000
 AREA1  0.000000000000000E+000
 U  0.000000000000000E+000
 U  0.000000000000000E+000
 U  0.000000000000000E+000
 U  0.000000000000000E+000
 U  0.000000000000000E+000
 U  0.000000000000000E+000
 U  0.000000000000000E+000
 U  0.000000000000000E+000
 ***********************************
 CURRENT ELEMENT NUMBER::::         105
 NUMBER OF NODES:::           4
 DOFs:::           2
 TOTAL DOF OF ELEMENT:::            8
 ************************************
         105
 AREA1  0.000000000000000E+000
 AREA1  0.000000000000000E+000
 U  0.000000000000000E+000
 U  0.000000000000000E+000
 U  0.000000000000000E+000
 U  0.000000000000000E+000
 U  0.000000000000000E+000
 U  0.000000000000000E+000
 U  0.000000000000000E+000
 U  0.000000000000000E+000
 ***********************************
 CURRENT ELEMENT NUMBER::::         106
 NUMBER OF NODES:::           4
 DOFs:::           2
 TOTAL DOF OF ELEMENT:::            8
 ************************************
         106
 AREA1  0.000000000000000E+000
 AREA1  0.000000000000000E+000
 U  0.000000000000000E+000
 U  0.000000000000000E+000
 U  0.000000000000000E+000
 U  0.000000000000000E+000
 U  0.000000000000000E+000
 U  0.000000000000000E+000
 U  0.000000000000000E+000
 U  0.000000000000000E+000
 ***********************************
 CURRENT ELEMENT NUMBER::::         107
 NUMBER OF NODES:::           4
 DOFs:::           2
 TOTAL DOF OF ELEMENT:::            8
 ************************************
         107
 AREA1  0.000000000000000E+000
 AREA1  0.000000000000000E+000
 U  0.000000000000000E+000
 U  0.000000000000000E+000
 U  0.000000000000000E+000
 U  0.000000000000000E+000
 U  0.000000000000000E+000
 U  0.000000000000000E+000
 U  0.000000000000000E+000
 U  0.000000000000000E+000
 ***********************************
 CURRENT ELEMENT NUMBER::::         108
 NUMBER OF NODES:::           4
 DOFs:::           2
 TOTAL DOF OF ELEMENT:::            8
 ************************************
         108
 AREA1  0.000000000000000E+000
 AREA1  0.000000000000000E+000
 U  0.000000000000000E+000
 U  0.000000000000000E+000
 U  0.000000000000000E+000
 U  0.000000000000000E+000
 U  0.000000000000000E+000
 U  0.000000000000000E+000
 U  0.000000000000000E+000
 U  0.000000000000000E+000
 ***********************************
 CURRENT ELEMENT NUMBER::::         109
 NUMBER OF NODES:::           4
 DOFs:::           2
 TOTAL DOF OF ELEMENT:::            8
 ************************************
         109
 AREA1  0.000000000000000E+000
 AREA1  0.000000000000000E+000
 U  0.000000000000000E+000
 U  0.000000000000000E+000
 U  0.000000000000000E+000
 U  0.000000000000000E+000
 U  0.000000000000000E+000
 U  0.000000000000000E+000
 U  0.000000000000000E+000
 U  0.000000000000000E+000
 ***********************************
 CURRENT ELEMENT NUMBER::::         110
 NUMBER OF NODES:::           4
 DOFs:::           2
 TOTAL DOF OF ELEMENT:::            8
 ************************************
         110
 AREA1  0.000000000000000E+000
 AREA1  0.000000000000000E+000
 U  0.000000000000000E+000
 U  0.000000000000000E+000
 U  0.000000000000000E+000
 U  0.000000000000000E+000
 U  0.000000000000000E+000
 U  0.000000000000000E+000
 U  0.000000000000000E+000
 U  0.000000000000000E+000
 ***********************************
 CURRENT ELEMENT NUMBER::::         111
 NUMBER OF NODES:::           4
 DOFs:::           2
 TOTAL DOF OF ELEMENT:::            8
 ************************************
         111
 AREA1  0.000000000000000E+000
 AREA1  0.000000000000000E+000
 U  0.000000000000000E+000
 U  0.000000000000000E+000
 U  0.000000000000000E+000
 U  0.000000000000000E+000
 U  0.000000000000000E+000
 U  0.000000000000000E+000
 U  0.000000000000000E+000
 U  0.000000000000000E+000
 ***********************************
 CURRENT ELEMENT NUMBER::::         112
 NUMBER OF NODES:::           4
 DOFs:::           2
 TOTAL DOF OF ELEMENT:::            8
 ************************************
         112
 AREA1  0.000000000000000E+000
 AREA1  0.000000000000000E+000
 U  0.000000000000000E+000
 U  0.000000000000000E+000
 U  0.000000000000000E+000
 U  0.000000000000000E+000
 U  0.000000000000000E+000
 U  0.000000000000000E+000
 U  0.000000000000000E+000
 U  0.000000000000000E+000
 ***********************************
 CURRENT ELEMENT NUMBER::::         113
 NUMBER OF NODES:::           4
 DOFs:::           2
 TOTAL DOF OF ELEMENT:::            8
 ************************************
         113
 AREA1  0.000000000000000E+000
 AREA1  0.000000000000000E+000
 U  0.000000000000000E+000
 U  0.000000000000000E+000
 U  0.000000000000000E+000
 U  0.000000000000000E+000
 U  0.000000000000000E+000
 U  0.000000000000000E+000
 U  0.000000000000000E+000
 U  0.000000000000000E+000
 ***********************************
 CURRENT ELEMENT NUMBER::::         114
 NUMBER OF NODES:::           4
 DOFs:::           2
 TOTAL DOF OF ELEMENT:::            8
 ************************************
         114
 AREA1  0.000000000000000E+000
 AREA1  0.000000000000000E+000
 U  0.000000000000000E+000
 U  0.000000000000000E+000
 U  0.000000000000000E+000
 U  0.000000000000000E+000
 U  0.000000000000000E+000
 U  0.000000000000000E+000
 U  0.000000000000000E+000
 U  0.000000000000000E+000
 ***********************************
 CURRENT ELEMENT NUMBER::::         115
 NUMBER OF NODES:::           4
 DOFs:::           2
 TOTAL DOF OF ELEMENT:::            8
 ************************************
         115
 AREA1  0.000000000000000E+000
 AREA1  0.000000000000000E+000
 U  0.000000000000000E+000
 U  0.000000000000000E+000
 U  0.000000000000000E+000
 U  0.000000000000000E+000
 U  0.000000000000000E+000
 U  0.000000000000000E+000
 U  0.000000000000000E+000
 U  0.000000000000000E+000
 ***********************************
 CURRENT ELEMENT NUMBER::::         116
 NUMBER OF NODES:::           4
 DOFs:::           2
 TOTAL DOF OF ELEMENT:::            8
 ************************************
         116
 AREA1  0.000000000000000E+000
 AREA1  0.000000000000000E+000
 U  0.000000000000000E+000
 U  0.000000000000000E+000
 U  0.000000000000000E+000
 U  0.000000000000000E+000
 U  0.000000000000000E+000
 U  0.000000000000000E+000
 U  0.000000000000000E+000
 U  0.000000000000000E+000
 ***********************************
 CURRENT ELEMENT NUMBER::::         117
 NUMBER OF NODES:::           4
 DOFs:::           2
 TOTAL DOF OF ELEMENT:::            8
 ************************************
         117
 AREA1  0.000000000000000E+000
 AREA1  0.000000000000000E+000
 U  0.000000000000000E+000
 U  0.000000000000000E+000
 U  0.000000000000000E+000
 U  0.000000000000000E+000
 U  0.000000000000000E+000
 U  0.000000000000000E+000
 U  0.000000000000000E+000
 U  0.000000000000000E+000
 ***********************************
 CURRENT ELEMENT NUMBER::::         118
 NUMBER OF NODES:::           4
 DOFs:::           2
 TOTAL DOF OF ELEMENT:::            8
 ************************************
         118
 AREA1  0.000000000000000E+000
 AREA1  0.000000000000000E+000
 U  0.000000000000000E+000
 U  0.000000000000000E+000
 U  0.000000000000000E+000
 U  0.000000000000000E+000
 U  0.000000000000000E+000
 U  0.000000000000000E+000
 U  0.000000000000000E+000
 U  0.000000000000000E+000
 ***********************************
 CURRENT ELEMENT NUMBER::::         119
 NUMBER OF NODES:::           4
 DOFs:::           2
 TOTAL DOF OF ELEMENT:::            8
 ************************************
         119
 AREA1  0.000000000000000E+000
 AREA1  0.000000000000000E+000
 U  0.000000000000000E+000
 U  0.000000000000000E+000
 U  0.000000000000000E+000
 U  0.000000000000000E+000
 U  0.000000000000000E+000
 U  0.000000000000000E+000
 U  0.000000000000000E+000
 U  0.000000000000000E+000
 ***********************************
 CURRENT ELEMENT NUMBER::::         120
 NUMBER OF NODES:::           4
 DOFs:::           2
 TOTAL DOF OF ELEMENT:::            8
 ************************************
         120
 AREA1  0.000000000000000E+000
 AREA1  0.000000000000000E+000
 U  0.000000000000000E+000
 U  0.000000000000000E+000
 U  0.000000000000000E+000
 U  0.000000000000000E+000
 U  0.000000000000000E+000
 U  0.000000000000000E+000
 U  0.000000000000000E+000
 U  0.000000000000000E+000
 ***********************************
 CURRENT ELEMENT NUMBER::::         121
 NUMBER OF NODES:::           4
 DOFs:::           2
 TOTAL DOF OF ELEMENT:::            8
 ************************************
         121
 AREA1  0.000000000000000E+000
 AREA1  0.000000000000000E+000
 U  0.000000000000000E+000
 U  0.000000000000000E+000
 U  0.000000000000000E+000
 U  0.000000000000000E+000
 U  0.000000000000000E+000
 U  0.000000000000000E+000
 U  0.000000000000000E+000
 U  0.000000000000000E+000
 ***********************************
 CURRENT ELEMENT NUMBER::::         122
 NUMBER OF NODES:::           4
 DOFs:::           2
 TOTAL DOF OF ELEMENT:::            8
 ************************************
         122
 AREA1  0.000000000000000E+000
 AREA1  0.000000000000000E+000
 U  0.000000000000000E+000
 U  0.000000000000000E+000
 U  0.000000000000000E+000
 U  0.000000000000000E+000
 U  0.000000000000000E+000
 U  0.000000000000000E+000
 U  0.000000000000000E+000
 U  0.000000000000000E+000
 ***********************************
 CURRENT ELEMENT NUMBER::::         123
 NUMBER OF NODES:::           4
 DOFs:::           2
 TOTAL DOF OF ELEMENT:::            8
 ************************************
         123
 AREA1  0.000000000000000E+000
 AREA1  0.000000000000000E+000
 U  0.000000000000000E+000
 U  0.000000000000000E+000
 U  0.000000000000000E+000
 U  0.000000000000000E+000
 U  0.000000000000000E+000
 U  0.000000000000000E+000
 U  0.000000000000000E+000
 U  0.000000000000000E+000
 ***********************************
 CURRENT ELEMENT NUMBER::::         124
 NUMBER OF NODES:::           4
 DOFs:::           2
 TOTAL DOF OF ELEMENT:::            8
 ************************************
         124
 AREA1  0.000000000000000E+000
 AREA1  0.000000000000000E+000
 U  0.000000000000000E+000
 U  0.000000000000000E+000
 U  0.000000000000000E+000
 U  0.000000000000000E+000
 U  0.000000000000000E+000
 U  0.000000000000000E+000
 U  0.000000000000000E+000
 U  0.000000000000000E+000
 ***********************************
 CURRENT ELEMENT NUMBER::::         125
 NUMBER OF NODES:::           4
 DOFs:::           2
 TOTAL DOF OF ELEMENT:::            8
 ************************************
         125
 AREA1  0.000000000000000E+000
 AREA1  0.000000000000000E+000
 U  0.000000000000000E+000
 U  0.000000000000000E+000
 U  0.000000000000000E+000
 U  0.000000000000000E+000
 U  0.000000000000000E+000
 U  0.000000000000000E+000
 U  0.000000000000000E+000
 U  0.000000000000000E+000
 ***********************************
 CURRENT ELEMENT NUMBER::::         126
 NUMBER OF NODES:::           4
 DOFs:::           2
 TOTAL DOF OF ELEMENT:::            8
 ************************************
         126
 AREA1  0.000000000000000E+000
 AREA1  0.000000000000000E+000
 U  0.000000000000000E+000
 U  0.000000000000000E+000
 U  0.000000000000000E+000
 U  0.000000000000000E+000
 U  0.000000000000000E+000
 U  0.000000000000000E+000
 U  0.000000000000000E+000
 U  0.000000000000000E+000
 ***********************************
 CURRENT ELEMENT NUMBER::::         127
 NUMBER OF NODES:::           4
 DOFs:::           2
 TOTAL DOF OF ELEMENT:::            8
 ************************************
         127
 AREA1  0.000000000000000E+000
 AREA1  0.000000000000000E+000
 U  0.000000000000000E+000
 U  0.000000000000000E+000
 U  0.000000000000000E+000
 U  0.000000000000000E+000
 U  0.000000000000000E+000
 U  0.000000000000000E+000
 U  0.000000000000000E+000
 U  0.000000000000000E+000
 ***********************************
 CURRENT ELEMENT NUMBER::::         128
 NUMBER OF NODES:::           4
 DOFs:::           2
 TOTAL DOF OF ELEMENT:::            8
 ************************************
         128
 AREA1  0.000000000000000E+000
 AREA1  0.000000000000000E+000
 U  0.000000000000000E+000
 U  0.000000000000000E+000
 U  0.000000000000000E+000
 U  0.000000000000000E+000
 U  0.000000000000000E+000
 U  0.000000000000000E+000
 U  0.000000000000000E+000
 U  0.000000000000000E+000
 ***********************************
 CURRENT ELEMENT NUMBER::::         129
 NUMBER OF NODES:::           4
 DOFs:::           2
 TOTAL DOF OF ELEMENT:::            8
 ************************************
         129
 AREA1  0.000000000000000E+000
 AREA1  0.000000000000000E+000
 U  0.000000000000000E+000
 U  0.000000000000000E+000
 U  0.000000000000000E+000
 U  0.000000000000000E+000
 U  0.000000000000000E+000
 U  0.000000000000000E+000
 U  0.000000000000000E+000
 U  0.000000000000000E+000
 ***********************************
 CURRENT ELEMENT NUMBER::::         130
 NUMBER OF NODES:::           4
 DOFs:::           2
 TOTAL DOF OF ELEMENT:::            8
 ************************************
         130
 AREA1  0.000000000000000E+000
 AREA1  0.000000000000000E+000
 U  0.000000000000000E+000
 U  0.000000000000000E+000
 U  0.000000000000000E+000
 U  0.000000000000000E+000
 U  0.000000000000000E+000
 U  0.000000000000000E+000
 U  0.000000000000000E+000
 U  0.000000000000000E+000
 ***********************************
 CURRENT ELEMENT NUMBER::::         131
 NUMBER OF NODES:::           4
 DOFs:::           2
 TOTAL DOF OF ELEMENT:::            8
 ************************************
         131
 AREA1  0.000000000000000E+000
 AREA1  0.000000000000000E+000
 U  0.000000000000000E+000
 U  0.000000000000000E+000
 U  0.000000000000000E+000
 U  0.000000000000000E+000
 U  0.000000000000000E+000
 U  0.000000000000000E+000
 U  0.000000000000000E+000
 U  0.000000000000000E+000
 ***********************************
 CURRENT ELEMENT NUMBER::::         132
 NUMBER OF NODES:::           4
 DOFs:::           2
 TOTAL DOF OF ELEMENT:::            8
 ************************************
         132
 AREA1  0.000000000000000E+000
 AREA1  0.000000000000000E+000
 U  0.000000000000000E+000
 U  0.000000000000000E+000
 U  0.000000000000000E+000
 U  0.000000000000000E+000
 U  0.000000000000000E+000
 U  0.000000000000000E+000
 U  0.000000000000000E+000
 U  0.000000000000000E+000
 ***********************************
 CURRENT ELEMENT NUMBER::::         133
 NUMBER OF NODES:::           4
 DOFs:::           2
 TOTAL DOF OF ELEMENT:::            8
 ************************************
         133
 AREA1  0.000000000000000E+000
 AREA1  0.000000000000000E+000
 U  0.000000000000000E+000
 U  0.000000000000000E+000
 U  0.000000000000000E+000
 U  0.000000000000000E+000
 U  0.000000000000000E+000
 U  0.000000000000000E+000
 U  0.000000000000000E+000
 U  0.000000000000000E+000
 ***********************************
 CURRENT ELEMENT NUMBER::::         134
 NUMBER OF NODES:::           4
 DOFs:::           2
 TOTAL DOF OF ELEMENT:::            8
 ************************************
         134
 AREA1  0.000000000000000E+000
 AREA1  0.000000000000000E+000
 U  0.000000000000000E+000
 U  0.000000000000000E+000
 U  0.000000000000000E+000
 U  0.000000000000000E+000
 U  0.000000000000000E+000
 U  0.000000000000000E+000
 U  0.000000000000000E+000
 U  0.000000000000000E+000
 ***********************************
 CURRENT ELEMENT NUMBER::::         135
 NUMBER OF NODES:::           4
 DOFs:::           2
 TOTAL DOF OF ELEMENT:::            8
 ************************************
         135
 AREA1  0.000000000000000E+000
 AREA1  0.000000000000000E+000
 U  0.000000000000000E+000
 U  0.000000000000000E+000
 U  0.000000000000000E+000
 U  0.000000000000000E+000
 U  0.000000000000000E+000
 U  0.000000000000000E+000
 U  0.000000000000000E+000
 U  0.000000000000000E+000
 ***********************************
 CURRENT ELEMENT NUMBER::::         136
 NUMBER OF NODES:::           4
 DOFs:::           2
 TOTAL DOF OF ELEMENT:::            8
 ************************************
         136
 AREA1  0.000000000000000E+000
 AREA1  0.000000000000000E+000
 U  0.000000000000000E+000
 U  0.000000000000000E+000
 U  0.000000000000000E+000
 U  0.000000000000000E+000
 U  0.000000000000000E+000
 U  0.000000000000000E+000
 U  0.000000000000000E+000
 U  0.000000000000000E+000
 ***********************************
 CURRENT ELEMENT NUMBER::::         137
 NUMBER OF NODES:::           4
 DOFs:::           2
 TOTAL DOF OF ELEMENT:::            8
 ************************************
         137
 AREA1  0.000000000000000E+000
 AREA1  0.000000000000000E+000
 U  0.000000000000000E+000
 U  0.000000000000000E+000
 U  0.000000000000000E+000
 U  0.000000000000000E+000
 U  0.000000000000000E+000
 U  0.000000000000000E+000
 U  0.000000000000000E+000
 U  0.000000000000000E+000
 ***********************************
 CURRENT ELEMENT NUMBER::::         138
 NUMBER OF NODES:::           4
 DOFs:::           2
 TOTAL DOF OF ELEMENT:::            8
 ************************************
         138
 AREA1  0.000000000000000E+000
 AREA1  0.000000000000000E+000
 U  0.000000000000000E+000
 U  0.000000000000000E+000
 U  0.000000000000000E+000
 U  0.000000000000000E+000
 U  0.000000000000000E+000
 U  0.000000000000000E+000
 U  0.000000000000000E+000
 U  0.000000000000000E+000
 ***********************************
 CURRENT ELEMENT NUMBER::::         139
 NUMBER OF NODES:::           4
 DOFs:::           2
 TOTAL DOF OF ELEMENT:::            8
 ************************************
         139
 AREA1  0.000000000000000E+000
 AREA1  0.000000000000000E+000
 U  0.000000000000000E+000
 U  0.000000000000000E+000
 U  0.000000000000000E+000
 U  0.000000000000000E+000
 U  0.000000000000000E+000
 U  0.000000000000000E+000
 U  0.000000000000000E+000
 U  0.000000000000000E+000
 ***********************************
 CURRENT ELEMENT NUMBER::::         140
 NUMBER OF NODES:::           4
 DOFs:::           2
 TOTAL DOF OF ELEMENT:::            8
 ************************************
         140
 AREA1  0.000000000000000E+000
 AREA1  0.000000000000000E+000
 U  0.000000000000000E+000
 U  0.000000000000000E+000
 U  0.000000000000000E+000
 U  0.000000000000000E+000
 U  0.000000000000000E+000
 U  0.000000000000000E+000
 U  0.000000000000000E+000
 U  0.000000000000000E+000
 ***********************************
 CURRENT ELEMENT NUMBER::::         141
 NUMBER OF NODES:::           4
 DOFs:::           2
 TOTAL DOF OF ELEMENT:::            8
 ************************************
         141
 AREA1  0.000000000000000E+000
 AREA1  0.000000000000000E+000
 U  0.000000000000000E+000
 U  0.000000000000000E+000
 U  0.000000000000000E+000
 U  0.000000000000000E+000
 U  0.000000000000000E+000
 U  0.000000000000000E+000
 U  0.000000000000000E+000
 U  0.000000000000000E+000
 ***********************************
 CURRENT ELEMENT NUMBER::::         142
 NUMBER OF NODES:::           4
 DOFs:::           2
 TOTAL DOF OF ELEMENT:::            8
 ************************************
         142
 AREA1  0.000000000000000E+000
 AREA1  0.000000000000000E+000
 U  0.000000000000000E+000
 U  0.000000000000000E+000
 U  0.000000000000000E+000
 U  0.000000000000000E+000
 U  0.000000000000000E+000
 U  0.000000000000000E+000
 U  0.000000000000000E+000
 U  0.000000000000000E+000
 ***********************************
 CURRENT ELEMENT NUMBER::::         143
 NUMBER OF NODES:::           4
 DOFs:::           2
 TOTAL DOF OF ELEMENT:::            8
 ************************************
         143
 AREA1  0.000000000000000E+000
 AREA1  0.000000000000000E+000
 U  0.000000000000000E+000
 U  0.000000000000000E+000
 U  0.000000000000000E+000
 U  0.000000000000000E+000
 U  0.000000000000000E+000
 U  0.000000000000000E+000
 U  0.000000000000000E+000
 U  0.000000000000000E+000
 ***********************************
 CURRENT ELEMENT NUMBER::::         144
 NUMBER OF NODES:::           4
 DOFs:::           2
 TOTAL DOF OF ELEMENT:::            8
 ************************************
         144
 AREA1  0.000000000000000E+000
 AREA1  0.000000000000000E+000
 U  0.000000000000000E+000
 U  0.000000000000000E+000
 U  0.000000000000000E+000
 U  0.000000000000000E+000
 U  0.000000000000000E+000
 U  0.000000000000000E+000
 U  0.000000000000000E+000
 U  0.000000000000000E+000
 ***********************************
 CURRENT ELEMENT NUMBER::::         145
 NUMBER OF NODES:::           4
 DOFs:::           2
 TOTAL DOF OF ELEMENT:::            8
 ************************************
         145
 AREA1  0.000000000000000E+000
 AREA1  0.000000000000000E+000
 U  0.000000000000000E+000
 U  0.000000000000000E+000
 U  0.000000000000000E+000
 U  0.000000000000000E+000
 U  0.000000000000000E+000
 U  0.000000000000000E+000
 U  0.000000000000000E+000
 U  0.000000000000000E+000
 ***********************************
 CURRENT ELEMENT NUMBER::::         146
 NUMBER OF NODES:::           4
 DOFs:::           2
 TOTAL DOF OF ELEMENT:::            8
 ************************************
[...]
 ***********************************
 CURRENT ELEMENT NUMBER::::         542
 NUMBER OF NODES:::           4
 DOFs:::           2
 TOTAL DOF OF ELEMENT:::            8
 ************************************
         542
 AREA1   1312.63377286658     
 AREA1  1.987080020148824E-002
 U  6.173747121872357E-004
 U -9.116600075310733E-004
 U  6.571480998016738E-004
 U -1.042677846722942E-003
 U  7.911127607355466E-004
 U -1.055612415412693E-003
 U  7.433776275748834E-004
 U -9.249767895786406E-004
 ***********************************
 CURRENT ELEMENT NUMBER::::         543
 NUMBER OF NODES:::           4
 DOFs:::           2
 TOTAL DOF OF ELEMENT:::            8
 ************************************
         543
 AREA1   1274.44811148376     
 AREA1  1.691378926489051E-002
 U  6.571480998016738E-004
 U -1.042677846722942E-003
 U  6.957663420115452E-004
 U -1.181537539135308E-003
 U  8.374573876821405E-004
 U -1.194090805089282E-003
 U  7.911127607355466E-004
 U -1.055612415412693E-003
 ***********************************
 CURRENT ELEMENT NUMBER::::         544
 NUMBER OF NODES:::           4
 DOFs:::           2
 TOTAL DOF OF ELEMENT:::            8
 ************************************
         544
 AREA1   1236.32685885090     
 AREA1  1.121717916350917E-002
 U  6.957663420115452E-004
 U -1.181537539135308E-003
 U  7.332304747423567E-004
 U -1.328005475168931E-003
 U  8.824148211978055E-004
 U -1.340177998580032E-003
 U  8.374573876821405E-004
 U -1.194090805089282E-003
 ***********************************
 CURRENT ELEMENT NUMBER::::         545
 NUMBER OF NODES:::           4
 DOFs:::           2
 TOTAL DOF OF ELEMENT:::            8
 ************************************
         545
 AREA1   1198.25034371623     
 AREA1  6.176493681095963E-003
 U  7.332304747423567E-004
 U -1.328005475168931E-003
 U  7.695412383740528E-004
 U -1.481849963248317E-003
 U  9.259872902839843E-004
 U -1.493642034945296E-003
 U  8.824148211978055E-004
 U -1.340177998580032E-003
 ***********************************
 CURRENT ELEMENT NUMBER::::         546
 NUMBER OF NODES:::           4
 DOFs:::           2
 TOTAL DOF OF ELEMENT:::            8
 ************************************
         546
 AREA1   1160.19947418927     
 AREA1  2.727618310814250E-003
 U  7.695412383740528E-004
 U -1.481849963248317E-003
 U  8.046990682327446E-004
 U -1.642840298192531E-003
 U  9.681760374855440E-004
 U -1.654252034138117E-003
 U  9.259872902839843E-004
 U -1.493642034945296E-003
 ***********************************
 CURRENT ELEMENT NUMBER::::         547
 NUMBER OF NODES:::           4
 DOFs:::           2
 TOTAL DOF OF ELEMENT:::            8
 ************************************
         547
 AREA1   1122.16058347164     
 AREA1  7.779621355439303E-004
 U  8.046990682327446E-004
 U -1.642840298192531E-003
 U  8.387041741990216E-004
 U -1.810746162877442E-003
 U  1.008981621524800E-003
 U -1.821777586737147E-003
 U  9.681760374855440E-004
 U -1.654252034138117E-003
 ***********************************
 CURRENT ELEMENT NUMBER::::         548
 NUMBER OF NODES:::           4
 DOFs:::           2
 TOTAL DOF OF ELEMENT:::            8
 ************************************
         548
 AREA1   1084.12562239254     
 AREA1 -1.180230662498616E-004
 U  8.387041741990216E-004
 U -1.810746162877442E-003
 U  8.715566298752028E-004
 U -1.985337314645950E-003
 U  1.048404209701916E-003
 U -1.995988411102300E-003
 U  1.008981621524800E-003
 U -1.821777586737147E-003
 ***********************************
 CURRENT ELEMENT NUMBER::::         549
 NUMBER OF NODES:::           4
 DOFs:::           2
 TOTAL DOF OF ELEMENT:::            8
 ************************************
         549
 AREA1   1046.09069809771     
 AREA1 -4.006832919003500E-004
 U  8.715566298752028E-004
 U -1.985337314645950E-003
 U  9.032564409302344E-004
 U -2.166383454883029E-003
 U  1.086443786533731E-003
 U -2.176654199100852E-003
 U  1.048404209701916E-003
 U -1.995988411102300E-003
 ***********************************
 CURRENT ELEMENT NUMBER::::         550
 NUMBER OF NODES:::           4
 DOFs:::           2
 TOTAL DOF OF ELEMENT:::            8
 ************************************
         550
 AREA1   1008.05443321370     
 AREA1 -3.912526577778408E-004
 U  9.032564409302344E-004
 U -2.166383454883029E-003
 U  9.338035876264700E-004
 U -2.353654198537377E-003
 U  1.123100276543462E-003
 U -2.363544569067338E-003
 U  1.086443786533731E-003
 U -2.176654199100852E-003
 ***********************************
 CURRENT ELEMENT NUMBER::::         551
 NUMBER OF NODES:::           4
 DOFs:::           2
 TOTAL DOF OF ELEMENT:::            8
 ************************************
         551
 AREA1   970.016707667472     
 AREA1 -2.818425523969381E-004
 U  9.338035876264700E-004
 U -2.353654198537377E-003
 U  9.631980466601768E-004
 U -2.546919086847480E-003
 U  1.158373603657771E-003
 U -2.556429069260372E-003
 U  1.123100276543462E-003
 U -2.363544569067338E-003
 ***********************************
 CURRENT ELEMENT NUMBER::::         552
 NUMBER OF NODES:::           4
 DOFs:::           2
 TOTAL DOF OF ELEMENT:::            8
 ************************************
         552
 AREA1   931.977875111061     
 AREA1 -1.674134596214572E-004
 U  9.631980466601768E-004
 U -2.546919086847480E-003
 U  9.914397997933676E-004
 U -2.745947611836469E-003
 U  1.192263712213587E-003
 U -2.755077198086695E-003
 U  1.158373603657771E-003
 U -2.556429069260372E-003
 ***********************************
 CURRENT ELEMENT NUMBER::::         553
 NUMBER OF NODES:::           4
 DOFs:::           2
 TOTAL DOF OF ELEMENT:::            8
 ************************************
         553
 AREA1   893.938357919978     
 AREA1 -8.311156784657214E-005
 U  9.914397997933676E-004
 U -2.745947611836469E-003
 U  1.018528835477396E-003
 U -2.950509238273003E-003
 U  1.224770568719788E-003
 U -2.959258424721947E-003
 U  1.192263712213587E-003
 U -2.755077198086695E-003
 ***********************************
 CURRENT ELEMENT NUMBER::::         554
 NUMBER OF NODES:::           4
 DOFs:::           2
 TOTAL DOF OF ELEMENT:::            8
 ************************************
         554
 AREA1   855.898484634696     
 AREA1 -3.359006177561241E-005
 U  1.018528835477396E-003
 U -2.950509238273003E-003
 U  1.044465147550741E-003
 U -3.160373418718321E-003
 U  1.255894156293890E-003
 U -3.168742204201408E-003
 U  1.224770568719788E-003
 U -2.959258424721947E-003
 ***********************************
 CURRENT ELEMENT NUMBER::::         555
 NUMBER OF NODES:::           4
 DOFs:::           2
 TOTAL DOF OF ELEMENT:::            8
 ************************************
         555
 AREA1   817.858456595358     
 AREA1 -1.137501448056355E-005
 U  1.044465147550741E-003
 U -3.160373418718321E-003
 U  1.069248733236657E-003
 U -3.375309601918211E-003
 U  1.285634467941832E-003
 U -3.383297986325365E-003
 U  1.255894156293890E-003
 U -3.168742204201408E-003
 ***********************************
 CURRENT ELEMENT NUMBER::::         556
 NUMBER OF NODES:::           4
 DOFs:::           2
 TOTAL DOF OF ELEMENT:::            8
 ************************************
         556
 AREA1   779.818369846252     
 AREA1 -6.112639880484494E-006
 U  1.069248733236657E-003
 U -3.375309601918211E-003
 U  1.092879591427888E-003
 U -3.595087236343521E-003
 U  1.313991501195938E-003
 U -3.602695219740802E-003
 U  1.285634467941832E-003
 U -3.383297986325365E-003
 ***********************************
 CURRENT ELEMENT NUMBER::::         557
 NUMBER OF NODES:::           4
 DOFs:::           2
 TOTAL DOF OF ELEMENT:::            8
 ************************************
         557
 AREA1   741.778253429933     
 AREA1 -7.659694290396146E-006
 U  1.092879591427888E-003
 U -3.595087236343521E-003
 U  1.115357721579257E-003
 U -3.819475770742704E-003
 U  1.340965254759758E-003
 U -3.826703352924668E-003
 U  1.313991501195938E-003
 U -3.602695219740802E-003
 ***********************************
 CURRENT ELEMENT NUMBER::::         558
 NUMBER OF NODES:::           4
 DOFs:::           2
 TOTAL DOF OF ELEMENT:::            8
 ************************************
         558
 AREA1   703.738109753924     
 AREA1 -5.624960863315209E-006
 U  1.115357721579257E-003
 U -3.819475770742704E-003
 U  1.136683123271116E-003
 U -4.048244653172544E-003
 U  1.366555727163993E-003
 U -4.055091833560657E-003
 U  1.340965254759758E-003
 U -3.826703352924668E-003
 ***********************************
 CURRENT ELEMENT NUMBER::::         559
 NUMBER OF NODES:::           4
 DOFs:::           2
 TOTAL DOF OF ELEMENT:::            8
 ************************************
         559
 AREA1   665.697957105888     
 AREA1  1.251167779514617E-005
 U  1.136683123271116E-003
 U -4.048244653172544E-003
 U  1.156855796492138E-003
 U -4.281163329675144E-003
 U  1.390762917499796E-003
 U -4.287630107595038E-003
 U  1.366555727163993E-003
 U -4.055091833560657E-003
 ***********************************
 CURRENT ELEMENT NUMBER::::         560
 NUMBER OF NODES:::           4
 DOFs:::           2
 TOTAL DOF OF ELEMENT:::            8
 ************************************
         560
 AREA1   627.657880437904     
 AREA1  6.318486435930026E-005
 U  1.156855796492138E-003
 U -4.281163329675144E-003
 U  1.175875742769002E-003
 U -4.518001243877296E-003
 U  1.413586828655096E-003
 U -4.524087619353836E-003
 U  1.390762917499796E-003
 U -4.287630107595038E-003
 ***********************************
 CURRENT ELEMENT NUMBER::::         561
 NUMBER OF NODES:::           4
 DOFs:::           2
 TOTAL DOF OF ELEMENT:::            8
 ************************************
         561
 AREA1   589.618094571214     
 AREA1  1.648973153862698E-004
 U  1.175875742769002E-003
 U -4.518001243877296E-003
 U  1.193742967311401E-003
 U -4.758527839308642E-003
 U  1.435027473786164E-003
 U -4.764233814730371E-003
 U  1.413586828655096E-003
 U -4.524087619353836E-003
 ***********************************
 CURRENT ELEMENT NUMBER::::         562
 NUMBER OF NODES:::           4
 DOFs:::           2
 TOTAL DOF OF ELEMENT:::            8
 ************************************
         562
 AREA1   551.579012170918     
 AREA1  3.324087889211569E-004
 U  1.193742967311401E-003
 U -4.758527839308642E-003
 U  1.210457482194191E-003
 U -5.002512567400249E-003
 U  1.455084886399926E-003
 U -5.007838150061352E-003
 U  1.435027473786164E-003
 U -4.764233814730371E-003
 ***********************************
 CURRENT ELEMENT NUMBER::::         563
 NUMBER OF NODES:::           4
 DOFs:::           2
 TOTAL DOF OF ELEMENT:::            8
 ************************************
         563
 AREA1   513.541279520169     
 AREA1  5.499455855044744E-004
 U  1.210457482194191E-003
 U -5.002512567400249E-003
 U  1.226019309824212E-003
 U -5.249724904537827E-003
 U  1.473759133072338E-003
 U -5.254670110804089E-003
 U  1.455084886399926E-003
 U -5.007838150061352E-003
 ***********************************
 CURRENT ELEMENT NUMBER::::         564
 NUMBER OF NODES:::           4
 DOFs:::           2
 TOTAL DOF OF ELEMENT:::            8
 ************************************
         564
 AREA1   475.505696958101     
 AREA1  7.455344120046448E-004
 U  1.226019309824212E-003
 U -5.249724904537827E-003
 U  1.240428485520629E-003
 U -5.499934382738673E-003
 U  1.491050322262440E-003
 U -5.504499240709279E-003
 U  1.473759133072338E-003
 U -5.254670110804089E-003
 ***********************************
 CURRENT ELEMENT NUMBER::::         565
 NUMBER OF NODES:::           4
 DOFs:::           2
 TOTAL DOF OF ELEMENT:::            8
 ************************************
         565
 AREA1   437.472852947740     
 AREA1  6.969455990599727E-004
 U  1.240428485520629E-003
 U -5.499934382738673E-003
 U  1.253685052363165E-003
 U -5.752910630653608E-003
 U  1.506958598344174E-003
 U -5.757095183278917E-003
 U  1.491050322262440E-003
 U -5.504499240709279E-003
 ***********************************
 CURRENT ELEMENT NUMBER::::         566
 NUMBER OF NODES:::           4
 DOFs:::           2
 TOTAL DOF OF ELEMENT:::            8
 ************************************
         566
 AREA1   399.442278351562     
 AREA1  1.592072038647530E-005
 U  1.253685052363165E-003
 U -5.752910630653608E-003
 U  1.265789049558868E-003
 U -6.008423417289565E-003
 U  1.521484086053495E-003
 U -6.012227709169906E-003
 U  1.506958598344174E-003
 U -5.757095183278917E-003
 ***********************************
 CURRENT ELEMENT NUMBER::::         567
 NUMBER OF NODES:::           4
 DOFs:::           2
 TOTAL DOF OF ELEMENT:::            8
 ************************************
         567
 AREA1   361.410879626216     
 AREA1 -1.799208053895995E-003
 U  1.265789049558868E-003
 U -6.008423417289565E-003
 U  1.276740461436694E-003
 U -6.266242652037662E-003
 U  1.534626768801577E-003
 U -6.269666697697048E-003
 U  1.521484086053495E-003
 U -6.012227709169906E-003
 ***********************************
 CURRENT ELEMENT NUMBER::::         568
 NUMBER OF NODES:::           4
 DOFs:::           2
 TOTAL DOF OF ELEMENT:::            8
 ************************************
         568
 AREA1   323.371004744555     
 AREA1 -5.250238031933918E-003
 U  1.276740461436694E-003
 U -6.266242652037662E-003
 U  1.286539126811678E-003
 U -6.526138299199837E-003
 U  1.546386275414324E-003
 U -6.529182023651210E-003
 U  1.534626768801577E-003
 U -6.269666697697048E-003
 ***********************************
 CURRENT ELEMENT NUMBER::::         569
 NUMBER OF NODES:::           4
 DOFs:::           2
 TOTAL DOF OF ELEMENT:::            8
 ************************************
         569
 AREA1   285.308406267866     
 AREA1 -1.081609392109328E-002
 U  1.286539126811678E-003
 U -6.526138299199837E-003
 U  1.295184601274074E-003
 U -6.787880138932958E-003
 U  1.556761577691665E-003
 U -6.790543303679871E-003
 U  1.546386275414324E-003
 U -6.529182023651210E-003
 ***********************************
 CURRENT ELEMENT NUMBER::::         570
 NUMBER OF NODES:::           4
 DOFs:::           2
 TOTAL DOF OF ELEMENT:::            8
 ************************************
         570
 AREA1   247.200235221166     
 AREA1 -1.873416259935823E-002
 U  1.295184601274074E-003
 U -6.787880138932958E-003
 U  1.302675935916777E-003
 U -7.051237383862671E-003
 U  1.565750633413625E-003
 U -7.053519472764355E-003
 U  1.556761577691665E-003
 U -6.790543303679871E-003
 ***********************************
 CURRENT ELEMENT NUMBER::::         571
 NUMBER OF NODES:::           4
 DOFs:::           2
 TOTAL DOF OF ELEMENT:::            8
 ************************************
         571
 AREA1   209.014048164670     
 AREA1 -3.189098727185069E-002
 U  1.302675935916777E-003
 U -7.051237383862671E-003
 U  1.309011821938940E-003
 U -7.315977722474022E-003
 U  1.573349655088851E-003
 U -7.317878040601451E-003
 U  1.565750633413625E-003
 U -7.053519472764355E-003
 ***********************************
 CURRENT ELEMENT NUMBER::::         572
 NUMBER OF NODES:::           4
 DOFs:::           2
 TOTAL DOF OF ELEMENT:::            8
 ************************************
         572
 AREA1   170.699318134625     
 AREA1 -4.152359755260449E-002
 U  1.309011821938940E-003
 U -7.315977722474022E-003
 U  1.314189162919164E-003
 U -7.581867294119035E-003
 U  1.579553099122887E-003
 U -7.583383730594136E-003
 U  1.573349655088851E-003
 U -7.317878040601451E-003
 ***********************************
 CURRENT ELEMENT NUMBER::::         573
 NUMBER OF NODES:::           4
 DOFs:::           2
 TOTAL DOF OF ELEMENT:::            8
 ************************************
         573
 AREA1   132.199760886513     
 AREA1 -0.125218031062644     
 U  1.314189162919164E-003
 U -7.581867294119035E-003
 U  1.318211242562946E-003
 U -7.848660699566296E-003
 U  1.584346841232160E-003
 U -7.849796606177663E-003
 U  1.579553099122887E-003
 U -7.583383730594136E-003
 ***********************************
 CURRENT ELEMENT NUMBER::::         574
 NUMBER OF NODES:::           4
 DOFs:::           2
 TOTAL DOF OF ELEMENT:::            8
 ************************************
         574
 AREA1   93.3636584608655     
 AREA1  0.131258369486179     
 U  1.318211242562946E-003
 U -7.848660699566296E-003
 U  1.321053967781597E-003
 U -8.116129989152052E-003
 U  1.587725734743511E-003
 U -8.116852605151936E-003
 U  1.584346841232160E-003
 U -7.849796606177663E-003
 ***********************************
 CURRENT ELEMENT NUMBER::::         575
 NUMBER OF NODES:::           4
 DOFs:::           2
 TOTAL DOF OF ELEMENT:::            8
 ************************************
         575
 AREA1   54.1053241100286     
 AREA1  -1.98699153238417     
 U  1.321053967781597E-003
 U -8.116129989152052E-003
 U  1.322867387676258E-003
 U -8.383833810500592E-003
 U  1.589559076286833E-003
 U -8.384325767085067E-003
 U  1.587725734743511E-003
 U -8.116852605151936E-003
 ***********************************
 CURRENT ELEMENT NUMBER::::         576
 NUMBER OF NODES:::           4
 DOFs:::           2
 TOTAL DOF OF ELEMENT:::            8
 ************************************
         576
 AREA1   17.3928586661961     
 AREA1   10.9808958423416     
 U  1.322867387676258E-003
 U -8.383833810500592E-003
 U  1.323471522049650E-003
 U -8.651795520792246E-003
 U  1.589894847907674E-003
 U -8.650919361658273E-003
 U  1.589559076286833E-003
 U -8.384325767085067E-003

               CONVERGENCE CHECKS FOR EQUILIBRIUM ITERATION     1


 AVERAGE FORCE                       149.       TIME AVG. FORCE        149.    
 LARGEST RESIDUAL FORCE            -2.210E-10   AT NODE        484   DOF  2
 LARGEST INCREMENT OF DISP.        -8.652E-03   AT NODE        343   DOF  2
 LARGEST CORRECTION TO DISP.       -8.652E-03   AT NODE        343   DOF  2
          THE FORCE     EQUILIBRIUM RESPONSE WAS LINEAR IN THIS INCREMENT

 ITERATION SUMMARY FOR THE INCREMENT:   1 TOTAL ITERATIONS, OF WHICH
   0 ARE SEVERE DISCONTINUITY ITERATIONS AND  1 ARE EQUILIBRIUM ITERATIONS.

 TIME INCREMENT COMPLETED   1.00    ,  FRACTION OF STEP COMPLETED   1.00    
 STEP TIME COMPLETED        1.00    ,  TOTAL TIME COMPLETED         1.00    


          THE ANALYSIS HAS BEEN COMPLETED



     ANALYSIS SUMMARY:
     TOTAL OF          1  INCREMENTS
                       0  CUTBACKS IN AUTOMATIC INCREMENTATION
                       1  ITERATIONS INCLUDING CONTACT ITERATIONS IF PRESENT
                       1  PASSES THROUGH THE EQUATION SOLVER OF WHICH 
                       1  INVOLVE MATRIX DECOMPOSITION, INCLUDING
                       0  DECOMPOSITION(S) OF THE MASS MATRIX
                       1  REORDERING OF EQUATIONS TO MINIMIZE WAVEFRONT
                       0  ADDITIONAL RESIDUAL EVALUATIONS FOR LINE SEARCHES
                       0  ADDITIONAL OPERATOR EVALUATIONS FOR LINE SEARCHES
                       0  WARNING MESSAGES DURING USER INPUT PROCESSING
                       0  WARNING MESSAGES DURING ANALYSIS
                       0  ANALYSIS WARNINGS ARE NUMERICAL PROBLEM MESSAGES
                       0  ANALYSIS WARNINGS ARE NEGATIVE EIGENVALUE MESSAGES
                       0  ERROR MESSAGES



     JOB TIME SUMMARY
       USER TIME (SEC)      =  0.10000    
       SYSTEM TIME (SEC)    =  0.20000    
       TOTAL CPU TIME (SEC) =  0.30000    
       WALLCLOCK TIME (SEC) =          0
