1

   Abaqus 3DEXPERIENCE R2018x                                  Date 12-May-2020   Time 13:25:51
   For use by Supplied by Team-SolidSQUAD under license from Dassault Systemes or its subsidiary.

                                                                                 
                                                                                 
 STEP    1     INCREMENT     1     STEP TIME    0.00    


                        S T E P       1     S T A T I C   A N A L Y S I S


                                                                                          

     AUTOMATIC TIME CONTROL WITH -
          A SUGGESTED INITIAL TIME INCREMENT OF                 1.00    
          AND A TOTAL TIME PERIOD OF                            1.00    
          THE MINIMUM TIME INCREMENT ALLOWED IS                1.000E-05
          THE MAXIMUM TIME INCREMENT ALLOWED IS                 1.00    

     LINEAR EQUATION SOLVER TYPE         DIRECT SPARSE

 CONVERGENCE TOLERANCE PARAMETERS FOR FORCE    
     CRITERION FOR RESIDUAL FORCE     FOR A NONLINEAR PROBLEM          5.000E-03
     CRITERION FOR DISP.    CORRECTION IN A NONLINEAR PROBLEM          1.000E-02
     INITIAL VALUE OF TIME AVERAGE FORCE                               1.000E-02
     AVERAGE FORCE     IS TIME AVERAGE FORCE    
     ALTERNATE CRIT. FOR RESIDUAL FORCE     FOR A NONLINEAR PROBLEM    2.000E-02
     CRITERION FOR ZERO FORCE     RELATIVE TO TIME AVRG. FORCE         1.000E-05
     CRITERION FOR RESIDUAL FORCE     WHEN THERE IS ZERO FLUX          1.000E-05
     CRITERION FOR DISP.    CORRECTION WHEN THERE IS ZERO FLUX         1.000E-03
     CRITERION FOR RESIDUAL FORCE     FOR A LINEAR INCREMENT           1.000E-08
     FIELD CONVERSION RATIO                                             1.00    
     CRITERION FOR ZERO FORCE     REL. TO TIME AVRG. MAX. FORCE        1.000E-05
     CRITERION FOR ZERO DISP.    RELATIVE TO CHARACTERISTIC LENGTH     1.000E-08

     VOLUMETRIC STRAIN COMPATIBILITY TOLERANCE FOR HYBRID SOLIDS       1.000E-05
     AXIAL STRAIN COMPATIBILITY TOLERANCE FOR HYBRID BEAMS             1.000E-05
     TRANS. SHEAR STRAIN COMPATIBILITY TOLERANCE FOR HYBRID BEAMS      1.000E-05
     SOFT CONTACT CONSTRAINT COMPATIBILITY TOLERANCE FOR P>P0          5.000E-03
     SOFT CONTACT CONSTRAINT COMPATIBILITY TOLERANCE FOR P=0.0         0.100    
     CONTACT FORCE ERROR TOLERANCE FOR CONVERT SDI=YES                 1.00    
     DISPLACEMENT COMPATIBILITY TOLERANCE FOR DCOUP ELEMENTS           1.000E-05
     ROTATION COMPATIBILITY TOLERANCE FOR DCOUP ELEMENTS               1.000E-05

 EQUILIBRIUM WILL BE CHECKED FOR SEVERE DISCONTINUITY ITERATIONS

 TIME INCREMENTATION CONTROL PARAMETERS:
     FIRST EQUILIBRIUM ITERATION FOR CONSECUTIVE DIVERGENCE CHECK              4
     EQUILIBRIUM ITERATION AT WHICH LOG. CONVERGENCE RATE CHECK BEGINS         8
     EQUILIBRIUM ITERATION AFTER WHICH ALTERNATE RESIDUAL IS USED              9
     MAXIMUM EQUILIBRIUM ITERATIONS ALLOWED                                   16
     EQUILIBRIUM ITERATION COUNT FOR CUT-BACK IN NEXT INCREMENT               10
     MAXIMUM EQUILIB. ITERS IN TWO INCREMENTS FOR TIME INCREMENT INCREASE      4
     MAXIMUM ITERATIONS FOR SEVERE DISCONTINUITIES                            50
     MAXIMUM ATTEMPTS ALLOWED IN AN INCREMENT                                  5
     MAXIMUM DISCON. ITERS IN TWO INCREMENTS FOR TIME INCREMENT INCREASE      50
     MAXIMUM CONTACT AUGMENTATIONS FOR *SURFACE BEHAVIOR,AUGMENTED LAGRANGE   50
     CUT-BACK FACTOR AFTER DIVERGENCE                                 0.2500    
     CUT-BACK FACTOR FOR TOO SLOW CONVERGENCE                         0.5000    
     CUT-BACK FACTOR AFTER TOO MANY EQUILIBRIUM ITERATIONS            0.7500    
     CUT-BACK FACTOR AFTER TOO MANY SEVERE DISCONTINUITY ITERATIONS   0.2500    
     CUT-BACK FACTOR AFTER PROBLEMS IN ELEMENT ASSEMBLY               0.2500    
     INCREASE FACTOR AFTER TWO INCREMENTS THAT CONVERGE QUICKLY        1.500    
     MAX. TIME INCREMENT INCREASE FACTOR ALLOWED                       1.500    
     MAX. TIME INCREMENT INCREASE FACTOR ALLOWED (DYNAMICS)            1.250    
     MAX. TIME INCREMENT INCREASE FACTOR ALLOWED (DIFFUSION)           2.000    
     MINIMUM TIME INCREMENT RATIO FOR EXTRAPOLATION TO OCCUR          0.1000    
     MAX. RATIO OF TIME INCREMENT TO STABILITY LIMIT                   1.000    
     FRACTION OF STABILITY LIMIT FOR NEW TIME INCREMENT               0.9500    
     TIME INCREMENT INCREASE FACTOR BEFORE A TIME POINT                1.000    
     GLOBAL STABILIZATION CONTROL IS NOT USED

          PRINT OF INCREMENT NUMBER, TIME, ETC., EVERY    1  INCREMENTS

     THE MAXIMUM NUMBER OF INCREMENTS IN THIS STEP IS                     100

     LINEAR EXTRAPOLATION WILL BE USED

     DETAILS REGARDING ACTUAL SOLUTION WAVEFRONT REQUESTED

     DETAILED OUTPUT OF DIAGNOSTICS TO DATABASE REQUESTED

     PRINT OF INCREMENT NUMBER, TIME, ETC., TO THE MESSAGE FILE EVERY     1  INCREMENTS

     COLLECTING MODEL CONSTRAINT INFORMATION FOR OVERCONSTRAINT CHECKS

     COLLECTING STEP CONSTRAINT INFORMATION FOR OVERCONSTRAINT CHECKS
 ***********************************
 CURRENT ELEMENT NUMBER::::           1
 NUMBER OF NODES:::           4
 DOFs:::           2
 TOTAL DOF OF ELEMENT:::            8
 ************************************
           1
 AREA1  0.000000000000000E+000
 AREA1  0.000000000000000E+000
 U  0.000000000000000E+000
 U  0.000000000000000E+000
 U  0.000000000000000E+000
 U  0.000000000000000E+000
 U  0.000000000000000E+000
 U  0.000000000000000E+000
 U  0.000000000000000E+000
 U  0.000000000000000E+000
 ***********************************
 CURRENT ELEMENT NUMBER::::           2
 NUMBER OF NODES:::           4
 DOFs:::           2
 TOTAL DOF OF ELEMENT:::            8
 ************************************
           2
 AREA1  0.000000000000000E+000
 AREA1  0.000000000000000E+000
 U  0.000000000000000E+000
 U  0.000000000000000E+000
 U  0.000000000000000E+000
 U  0.000000000000000E+000
 U  0.000000000000000E+000
 U  0.000000000000000E+000
 U  0.000000000000000E+000
 U  0.000000000000000E+000
 ***********************************
 CURRENT ELEMENT NUMBER::::           3
 NUMBER OF NODES:::           4
 DOFs:::           2
 TOTAL DOF OF ELEMENT:::            8
 ************************************
           3
 AREA1  0.000000000000000E+000
 AREA1  0.000000000000000E+000
 U  0.000000000000000E+000
 U  0.000000000000000E+000
 U  0.000000000000000E+000
 U  0.000000000000000E+000
 U  0.000000000000000E+000
 U  0.000000000000000E+000
 U  0.000000000000000E+000
 U  0.000000000000000E+000
 ***********************************
 CURRENT ELEMENT NUMBER::::           4
 NUMBER OF NODES:::           4
 DOFs:::           2
 TOTAL DOF OF ELEMENT:::            8
 ************************************
           4
 AREA1  0.000000000000000E+000
 AREA1  0.000000000000000E+000
 U  0.000000000000000E+000
 U  0.000000000000000E+000
 U  0.000000000000000E+000
 U  0.000000000000000E+000
 U  0.000000000000000E+000
 U  0.000000000000000E+000
 U  0.000000000000000E+000
 U  0.000000000000000E+000
 ***********************************
 CURRENT ELEMENT NUMBER::::           5
 NUMBER OF NODES:::           4
 DOFs:::           2
 TOTAL DOF OF ELEMENT:::            8
 ************************************
           5
 AREA1  0.000000000000000E+000
 AREA1  0.000000000000000E+000
 U  0.000000000000000E+000
 U  0.000000000000000E+000
 U  0.000000000000000E+000
 U  0.000000000000000E+000
 U  0.000000000000000E+000
 U  0.000000000000000E+000
 U  0.000000000000000E+000
 U  0.000000000000000E+000
 ***********************************
 CURRENT ELEMENT NUMBER::::           6
 NUMBER OF NODES:::           4
 DOFs:::           2
 TOTAL DOF OF ELEMENT:::            8
 ************************************
           6
 AREA1  0.000000000000000E+000
 AREA1  0.000000000000000E+000
 U  0.000000000000000E+000
 U  0.000000000000000E+000
 U  0.000000000000000E+000
 U  0.000000000000000E+000
 U  0.000000000000000E+000
 U  0.000000000000000E+000
 U  0.000000000000000E+000
 U  0.000000000000000E+000
 ***********************************
 CURRENT ELEMENT NUMBER::::           7
 NUMBER OF NODES:::           4
 DOFs:::           2
 TOTAL DOF OF ELEMENT:::            8
 ************************************
           7
 AREA1  0.000000000000000E+000
 AREA1  0.000000000000000E+000
 U  0.000000000000000E+000
 U  0.000000000000000E+000
 U  0.000000000000000E+000
 U  0.000000000000000E+000
 U  0.000000000000000E+000
 U  0.000000000000000E+000
 U  0.000000000000000E+000
 U  0.000000000000000E+000
 ***********************************
 CURRENT ELEMENT NUMBER::::           8
 NUMBER OF NODES:::           4
 DOFs:::           2
 TOTAL DOF OF ELEMENT:::            8
 ************************************
           8
 AREA1  0.000000000000000E+000
 AREA1  0.000000000000000E+000
 U  0.000000000000000E+000
 U  0.000000000000000E+000
 U  0.000000000000000E+000
 U  0.000000000000000E+000
 U  0.000000000000000E+000
 U  0.000000000000000E+000
 U  0.000000000000000E+000
 U  0.000000000000000E+000
 ***********************************
 CURRENT ELEMENT NUMBER::::           9
 NUMBER OF NODES:::           4
 DOFs:::           2
 TOTAL DOF OF ELEMENT:::            8
 ************************************
           9
 AREA1  0.000000000000000E+000
 AREA1  0.000000000000000E+000
 U  0.000000000000000E+000
 U  0.000000000000000E+000
 U  0.000000000000000E+000
 U  0.000000000000000E+000
 U  0.000000000000000E+000
 U  0.000000000000000E+000
 U  0.000000000000000E+000
 U  0.000000000000000E+000
 ***********************************
 CURRENT ELEMENT NUMBER::::          10
 NUMBER OF NODES:::           4
 DOFs:::           2
 TOTAL DOF OF ELEMENT:::            8
 ************************************
          10
 AREA1  0.000000000000000E+000
 AREA1  0.000000000000000E+000
 U  0.000000000000000E+000
 U  0.000000000000000E+000
 U  0.000000000000000E+000
 U  0.000000000000000E+000
 U  0.000000000000000E+000
 U  0.000000000000000E+000
 U  0.000000000000000E+000
 U  0.000000000000000E+000
 ***********************************
 CURRENT ELEMENT NUMBER::::          11
 NUMBER OF NODES:::           4
 DOFs:::           2
 TOTAL DOF OF ELEMENT:::            8
 ************************************
          11
 AREA1  0.000000000000000E+000
 AREA1  0.000000000000000E+000
 U  0.000000000000000E+000
 U  0.000000000000000E+000
 U  0.000000000000000E+000
 U  0.000000000000000E+000
 U  0.000000000000000E+000
 U  0.000000000000000E+000
 U  0.000000000000000E+000
 U  0.000000000000000E+000
 ***********************************
 CURRENT ELEMENT NUMBER::::          12
 NUMBER OF NODES:::           4
 DOFs:::           2
 TOTAL DOF OF ELEMENT:::            8
 ************************************
          12
 AREA1  0.000000000000000E+000
 AREA1  0.000000000000000E+000
 U  0.000000000000000E+000
 U  0.000000000000000E+000
 U  0.000000000000000E+000
 U  0.000000000000000E+000
 U  0.000000000000000E+000
 U  0.000000000000000E+000
 U  0.000000000000000E+000
 U  0.000000000000000E+000
 ***********************************
 CURRENT ELEMENT NUMBER::::          13
 NUMBER OF NODES:::           4
 DOFs:::           2
 TOTAL DOF OF ELEMENT:::            8
 ************************************
          13
 AREA1  0.000000000000000E+000
 AREA1  0.000000000000000E+000
 U  0.000000000000000E+000
 U  0.000000000000000E+000
 U  0.000000000000000E+000
 U  0.000000000000000E+000
 U  0.000000000000000E+000
 U  0.000000000000000E+000
 U  0.000000000000000E+000
 U  0.000000000000000E+000
 ***********************************
 CURRENT ELEMENT NUMBER::::          14
 NUMBER OF NODES:::           4
 DOFs:::           2
 TOTAL DOF OF ELEMENT:::            8
 ************************************
          14
 AREA1  0.000000000000000E+000
 AREA1  0.000000000000000E+000
 U  0.000000000000000E+000
 U  0.000000000000000E+000
 U  0.000000000000000E+000
 U  0.000000000000000E+000
 U  0.000000000000000E+000
 U  0.000000000000000E+000
 U  0.000000000000000E+000
 U  0.000000000000000E+000
 ***********************************
 CURRENT ELEMENT NUMBER::::          15
 NUMBER OF NODES:::           4
 DOFs:::           2
 TOTAL DOF OF ELEMENT:::            8
 ************************************
          15
 AREA1  0.000000000000000E+000
 AREA1  0.000000000000000E+000
 U  0.000000000000000E+000
 U  0.000000000000000E+000
 U  0.000000000000000E+000
 U  0.000000000000000E+000
 U  0.000000000000000E+000
 U  0.000000000000000E+000
 U  0.000000000000000E+000
 U  0.000000000000000E+000
 ***********************************
 CURRENT ELEMENT NUMBER::::          16
 NUMBER OF NODES:::           4
 DOFs:::           2
 TOTAL DOF OF ELEMENT:::            8
 ************************************
          16
 AREA1  0.000000000000000E+000
 AREA1  0.000000000000000E+000
 U  0.000000000000000E+000
 U  0.000000000000000E+000
 U  0.000000000000000E+000
 U  0.000000000000000E+000
 U  0.000000000000000E+000
 U  0.000000000000000E+000
 U  0.000000000000000E+000
 U  0.000000000000000E+000
 ***********************************
 CURRENT ELEMENT NUMBER::::          17
 NUMBER OF NODES:::           4
 DOFs:::           2
 TOTAL DOF OF ELEMENT:::            8
 ************************************
          17
 AREA1  0.000000000000000E+000
 AREA1  0.000000000000000E+000
 U  0.000000000000000E+000
 U  0.000000000000000E+000
 U  0.000000000000000E+000
 U  0.000000000000000E+000
 U  0.000000000000000E+000
 U  0.000000000000000E+000
 U  0.000000000000000E+000
 U  0.000000000000000E+000
 ***********************************
 CURRENT ELEMENT NUMBER::::          18
 NUMBER OF NODES:::           4
 DOFs:::           2
 TOTAL DOF OF ELEMENT:::            8
 ************************************
          18
 AREA1  0.000000000000000E+000
 AREA1  0.000000000000000E+000
 U  0.000000000000000E+000
 U  0.000000000000000E+000
 U  0.000000000000000E+000
 U  0.000000000000000E+000
 U  0.000000000000000E+000
 U  0.000000000000000E+000
 U  0.000000000000000E+000
 U  0.000000000000000E+000
 ***********************************
 CURRENT ELEMENT NUMBER::::          19
 NUMBER OF NODES:::           4
 DOFs:::           2
 TOTAL DOF OF ELEMENT:::            8
 ************************************
          19
 AREA1  0.000000000000000E+000
 AREA1  0.000000000000000E+000
 U  0.000000000000000E+000
 U  0.000000000000000E+000
 U  0.000000000000000E+000
 U  0.000000000000000E+000
 U  0.000000000000000E+000
 U  0.000000000000000E+000
 U  0.000000000000000E+000
 U  0.000000000000000E+000
 ***********************************
 CURRENT ELEMENT NUMBER::::          20
 NUMBER OF NODES:::           4
 DOFs:::           2
 TOTAL DOF OF ELEMENT:::            8
 ************************************
          20
 AREA1  0.000000000000000E+000
 AREA1  0.000000000000000E+000
 U  0.000000000000000E+000
 U  0.000000000000000E+000
 U  0.000000000000000E+000
 U  0.000000000000000E+000
 U  0.000000000000000E+000
 U  0.000000000000000E+000
 U  0.000000000000000E+000
 U  0.000000000000000E+000
 ***********************************
 CURRENT ELEMENT NUMBER::::          21
 NUMBER OF NODES:::           4
 DOFs:::           2
 TOTAL DOF OF ELEMENT:::            8
 ************************************
          21
 AREA1  0.000000000000000E+000
 AREA1  0.000000000000000E+000
 U  0.000000000000000E+000
 U  0.000000000000000E+000
 U  0.000000000000000E+000
 U  0.000000000000000E+000
 U  0.000000000000000E+000
 U  0.000000000000000E+000
 U  0.000000000000000E+000
 U  0.000000000000000E+000
 ***********************************
 CURRENT ELEMENT NUMBER::::          22
 NUMBER OF NODES:::           4
 DOFs:::           2
 TOTAL DOF OF ELEMENT:::            8
 ************************************
          22
 AREA1  0.000000000000000E+000
 AREA1  0.000000000000000E+000
 U  0.000000000000000E+000
 U  0.000000000000000E+000
 U  0.000000000000000E+000
 U  0.000000000000000E+000
 U  0.000000000000000E+000
 U  0.000000000000000E+000
 U  0.000000000000000E+000
 U  0.000000000000000E+000
 ***********************************
 CURRENT ELEMENT NUMBER::::          23
 NUMBER OF NODES:::           4
 DOFs:::           2
 TOTAL DOF OF ELEMENT:::            8
 ************************************
          23
 AREA1  0.000000000000000E+000
 AREA1  0.000000000000000E+000
 U  0.000000000000000E+000
 U  0.000000000000000E+000
 U  0.000000000000000E+000
 U  0.000000000000000E+000
 U  0.000000000000000E+000
 U  0.000000000000000E+000
 U  0.000000000000000E+000
 U  0.000000000000000E+000
 ***********************************
 CURRENT ELEMENT NUMBER::::          24
 NUMBER OF NODES:::           4
 DOFs:::           2
 TOTAL DOF OF ELEMENT:::            8
 ************************************
          24
 AREA1  0.000000000000000E+000
 AREA1  0.000000000000000E+000
 U  0.000000000000000E+000
 U  0.000000000000000E+000
 U  0.000000000000000E+000
 U  0.000000000000000E+000
 U  0.000000000000000E+000
 U  0.000000000000000E+000
 U  0.000000000000000E+000
 U  0.000000000000000E+000
 ***********************************
 CURRENT ELEMENT NUMBER::::          25
 NUMBER OF NODES:::           4
 DOFs:::           2
 TOTAL DOF OF ELEMENT:::            8
 ************************************
          25
 AREA1  0.000000000000000E+000
 AREA1  0.000000000000000E+000
 U  0.000000000000000E+000
 U  0.000000000000000E+000
 U  0.000000000000000E+000
 U  0.000000000000000E+000
 U  0.000000000000000E+000
 U  0.000000000000000E+000
 U  0.000000000000000E+000
 U  0.000000000000000E+000
 ***********************************
 CURRENT ELEMENT NUMBER::::          26
 NUMBER OF NODES:::           4
 DOFs:::           2
 TOTAL DOF OF ELEMENT:::            8
 ************************************
          26
 AREA1  0.000000000000000E+000
 AREA1  0.000000000000000E+000
 U  0.000000000000000E+000
 U  0.000000000000000E+000
 U  0.000000000000000E+000
 U  0.000000000000000E+000
 U  0.000000000000000E+000
 U  0.000000000000000E+000
 U  0.000000000000000E+000
 U  0.000000000000000E+000
 ***********************************
 CURRENT ELEMENT NUMBER::::          27
 NUMBER OF NODES:::           4
 DOFs:::           2
 TOTAL DOF OF ELEMENT:::            8
 ************************************
          27
 AREA1  0.000000000000000E+000
 AREA1  0.000000000000000E+000
 U  0.000000000000000E+000
 U  0.000000000000000E+000
 U  0.000000000000000E+000
 U  0.000000000000000E+000
 U  0.000000000000000E+000
 U  0.000000000000000E+000
 U  0.000000000000000E+000
 U  0.000000000000000E+000
 ***********************************
 CURRENT ELEMENT NUMBER::::          28
 NUMBER OF NODES:::           4
 DOFs:::           2
 TOTAL DOF OF ELEMENT:::            8
 ************************************
          28
 AREA1  0.000000000000000E+000
 AREA1  0.000000000000000E+000
 U  0.000000000000000E+000
 U  0.000000000000000E+000
 U  0.000000000000000E+000
 U  0.000000000000000E+000
 U  0.000000000000000E+000
 U  0.000000000000000E+000
 U  0.000000000000000E+000
 U  0.000000000000000E+000
 ***********************************
 CURRENT ELEMENT NUMBER::::          29
 NUMBER OF NODES:::           4
 DOFs:::           2
 TOTAL DOF OF ELEMENT:::            8
 ************************************
          29
 AREA1  0.000000000000000E+000
 AREA1  0.000000000000000E+000
 U  0.000000000000000E+000
 U  0.000000000000000E+000
 U  0.000000000000000E+000
 U  0.000000000000000E+000
 U  0.000000000000000E+000
 U  0.000000000000000E+000
 U  0.000000000000000E+000
 U  0.000000000000000E+000
 ***********************************
 CURRENT ELEMENT NUMBER::::          30
 NUMBER OF NODES:::           4
 DOFs:::           2
 TOTAL DOF OF ELEMENT:::            8
 ************************************
          30
 AREA1  0.000000000000000E+000
 AREA1  0.000000000000000E+000
 U  0.000000000000000E+000
 U  0.000000000000000E+000
 U  0.000000000000000E+000
 U  0.000000000000000E+000
 U  0.000000000000000E+000
 U  0.000000000000000E+000
 U  0.000000000000000E+000
 U  0.000000000000000E+000
 ***********************************
 CURRENT ELEMENT NUMBER::::          31
 NUMBER OF NODES:::           4
 DOFs:::           2
 TOTAL DOF OF ELEMENT:::            8
 ************************************
          31
 AREA1  0.000000000000000E+000
 AREA1  0.000000000000000E+000
 U  0.000000000000000E+000
 U  0.000000000000000E+000
 U  0.000000000000000E+000
 U  0.000000000000000E+000
 U  0.000000000000000E+000
 U  0.000000000000000E+000
 U  0.000000000000000E+000
 U  0.000000000000000E+000
 ***********************************
 CURRENT ELEMENT NUMBER::::          32
 NUMBER OF NODES:::           4
 DOFs:::           2
 TOTAL DOF OF ELEMENT:::            8
 ************************************
          32
 AREA1  0.000000000000000E+000
 AREA1  0.000000000000000E+000
 U  0.000000000000000E+000
 U  0.000000000000000E+000
 U  0.000000000000000E+000
 U  0.000000000000000E+000
 U  0.000000000000000E+000
 U  0.000000000000000E+000
 U  0.000000000000000E+000
 U  0.000000000000000E+000
 ***********************************
 CURRENT ELEMENT NUMBER::::          33
 NUMBER OF NODES:::           4
 DOFs:::           2
 TOTAL DOF OF ELEMENT:::            8
 ************************************
          33
 AREA1  0.000000000000000E+000
 AREA1  0.000000000000000E+000
 U  0.000000000000000E+000
 U  0.000000000000000E+000
 U  0.000000000000000E+000
 U  0.000000000000000E+000
 U  0.000000000000000E+000
 U  0.000000000000000E+000
 U  0.000000000000000E+000
 U  0.000000000000000E+000
 ***********************************
 CURRENT ELEMENT NUMBER::::          34
 NUMBER OF NODES:::           4
 DOFs:::           2
 TOTAL DOF OF ELEMENT:::            8
 ************************************
          34
 AREA1  0.000000000000000E+000
 AREA1  0.000000000000000E+000
 U  0.000000000000000E+000
 U  0.000000000000000E+000
 U  0.000000000000000E+000
 U  0.000000000000000E+000
 U  0.000000000000000E+000
 U  0.000000000000000E+000
 U  0.000000000000000E+000
 U  0.000000000000000E+000
 ***********************************
 CURRENT ELEMENT NUMBER::::          35
 NUMBER OF NODES:::           4
 DOFs:::           2
 TOTAL DOF OF ELEMENT:::            8
 ************************************
          35
 AREA1  0.000000000000000E+000
 AREA1  0.000000000000000E+000
 U  0.000000000000000E+000
 U  0.000000000000000E+000
 U  0.000000000000000E+000
 U  0.000000000000000E+000
 U  0.000000000000000E+000
 U  0.000000000000000E+000
 U  0.000000000000000E+000
 U  0.000000000000000E+000
 ***********************************
 CURRENT ELEMENT NUMBER::::          36
 NUMBER OF NODES:::           4
 DOFs:::           2
 TOTAL DOF OF ELEMENT:::            8
 ************************************
          36
 AREA1  0.000000000000000E+000
 AREA1  0.000000000000000E+000
 U  0.000000000000000E+000
 U  0.000000000000000E+000
 U  0.000000000000000E+000
 U  0.000000000000000E+000
 U  0.000000000000000E+000
 U  0.000000000000000E+000
 U  0.000000000000000E+000
 U  0.000000000000000E+000
 ***********************************
 CURRENT ELEMENT NUMBER::::          37
 NUMBER OF NODES:::           4
 DOFs:::           2
 TOTAL DOF OF ELEMENT:::            8
 ************************************
          37
 AREA1  0.000000000000000E+000
 AREA1  0.000000000000000E+000
 U  0.000000000000000E+000
 U  0.000000000000000E+000
 U  0.000000000000000E+000
 U  0.000000000000000E+000
 U  0.000000000000000E+000
 U  0.000000000000000E+000
 U  0.000000000000000E+000
 U  0.000000000000000E+000
 ***********************************
 CURRENT ELEMENT NUMBER::::          38
 NUMBER OF NODES:::           4
 DOFs:::           2
 TOTAL DOF OF ELEMENT:::            8
 ************************************
          38
 AREA1  0.000000000000000E+000
 AREA1  0.000000000000000E+000
 U  0.000000000000000E+000
 U  0.000000000000000E+000
 U  0.000000000000000E+000
 U  0.000000000000000E+000
 U  0.000000000000000E+000
 U  0.000000000000000E+000
 U  0.000000000000000E+000
 U  0.000000000000000E+000
 ***********************************
 CURRENT ELEMENT NUMBER::::          39
 NUMBER OF NODES:::           4
 DOFs:::           2
 TOTAL DOF OF ELEMENT:::            8
 ************************************
          39
 AREA1  0.000000000000000E+000
 AREA1  0.000000000000000E+000
 U  0.000000000000000E+000
 U  0.000000000000000E+000
 U  0.000000000000000E+000
 U  0.000000000000000E+000
 U  0.000000000000000E+000
 U  0.000000000000000E+000
 U  0.000000000000000E+000
 U  0.000000000000000E+000
 ***********************************
 CURRENT ELEMENT NUMBER::::          40
 NUMBER OF NODES:::           4
 DOFs:::           2
 TOTAL DOF OF ELEMENT:::            8
 ************************************
          40
 AREA1  0.000000000000000E+000
 AREA1  0.000000000000000E+000
 U  0.000000000000000E+000
 U  0.000000000000000E+000
 U  0.000000000000000E+000
 U  0.000000000000000E+000
 U  0.000000000000000E+000
 U  0.000000000000000E+000
 U  0.000000000000000E+000
 U  0.000000000000000E+000
 ***********************************
 CURRENT ELEMENT NUMBER::::          41
 NUMBER OF NODES:::           4
 DOFs:::           2
 TOTAL DOF OF ELEMENT:::            8
 ************************************
          41
 AREA1  0.000000000000000E+000
 AREA1  0.000000000000000E+000
 U  0.000000000000000E+000
 U  0.000000000000000E+000
 U  0.000000000000000E+000
 U  0.000000000000000E+000
 U  0.000000000000000E+000
 U  0.000000000000000E+000
 U  0.000000000000000E+000
 U  0.000000000000000E+000
 ***********************************
 CURRENT ELEMENT NUMBER::::          42
 NUMBER OF NODES:::           4
 DOFs:::           2
 TOTAL DOF OF ELEMENT:::            8
 ************************************
          42
 AREA1  0.000000000000000E+000
 AREA1  0.000000000000000E+000
 U  0.000000000000000E+000
 U  0.000000000000000E+000
 U  0.000000000000000E+000
 U  0.000000000000000E+000
 U  0.000000000000000E+000
 U  0.000000000000000E+000
 U  0.000000000000000E+000
 U  0.000000000000000E+000
 ***********************************
 CURRENT ELEMENT NUMBER::::          43
 NUMBER OF NODES:::           4
 DOFs:::           2
 TOTAL DOF OF ELEMENT:::            8
 ************************************
          43
 AREA1  0.000000000000000E+000
 AREA1  0.000000000000000E+000
 U  0.000000000000000E+000
 U  0.000000000000000E+000
 U  0.000000000000000E+000
 U  0.000000000000000E+000
 U  0.000000000000000E+000
 U  0.000000000000000E+000
 U  0.000000000000000E+000
 U  0.000000000000000E+000
 ***********************************
 CURRENT ELEMENT NUMBER::::          44
 NUMBER OF NODES:::           4
 DOFs:::           2
 TOTAL DOF OF ELEMENT:::            8
 ************************************
          44
 AREA1  0.000000000000000E+000
 AREA1  0.000000000000000E+000
 U  0.000000000000000E+000
 U  0.000000000000000E+000
 U  0.000000000000000E+000
 U  0.000000000000000E+000
 U  0.000000000000000E+000
 U  0.000000000000000E+000
 U  0.000000000000000E+000
 U  0.000000000000000E+000
 ***********************************
 CURRENT ELEMENT NUMBER::::          45
 NUMBER OF NODES:::           4
 DOFs:::           2
 TOTAL DOF OF ELEMENT:::            8
 ************************************
          45
 AREA1  0.000000000000000E+000
 AREA1  0.000000000000000E+000
 U  0.000000000000000E+000
 U  0.000000000000000E+000
 U  0.000000000000000E+000
 U  0.000000000000000E+000
 U  0.000000000000000E+000
 U  0.000000000000000E+000
 U  0.000000000000000E+000
 U  0.000000000000000E+000
 ***********************************
 CURRENT ELEMENT NUMBER::::          46
 NUMBER OF NODES:::           4
 DOFs:::           2
 TOTAL DOF OF ELEMENT:::            8
 ************************************
          46
 AREA1  0.000000000000000E+000
 AREA1  0.000000000000000E+000
 U  0.000000000000000E+000
 U  0.000000000000000E+000
 U  0.000000000000000E+000
 U  0.000000000000000E+000
 U  0.000000000000000E+000
 U  0.000000000000000E+000
 U  0.000000000000000E+000
 U  0.000000000000000E+000
 ***********************************
 CURRENT ELEMENT NUMBER::::          47
 NUMBER OF NODES:::           4
 DOFs:::           2
 TOTAL DOF OF ELEMENT:::            8
 ************************************
          47
 AREA1  0.000000000000000E+000
 AREA1  0.000000000000000E+000
 U  0.000000000000000E+000
 U  0.000000000000000E+000
 U  0.000000000000000E+000
 U  0.000000000000000E+000
 U  0.000000000000000E+000
 U  0.000000000000000E+000
 U  0.000000000000000E+000
 U  0.000000000000000E+000
 ***********************************
 CURRENT ELEMENT NUMBER::::          48
 NUMBER OF NODES:::           4
 DOFs:::           2
 TOTAL DOF OF ELEMENT:::            8
 ************************************
          48
 AREA1  0.000000000000000E+000
 AREA1  0.000000000000000E+000
 U  0.000000000000000E+000
 U  0.000000000000000E+000
 U  0.000000000000000E+000
 U  0.000000000000000E+000
 U  0.000000000000000E+000
 U  0.000000000000000E+000
 U  0.000000000000000E+000
 U  0.000000000000000E+000
 ***********************************
 CURRENT ELEMENT NUMBER::::          49
 NUMBER OF NODES:::           4
 DOFs:::           2
 TOTAL DOF OF ELEMENT:::            8
 ************************************
          49
 AREA1  0.000000000000000E+000
 AREA1  0.000000000000000E+000
 U  0.000000000000000E+000
 U  0.000000000000000E+000
 U  0.000000000000000E+000
 U  0.000000000000000E+000
 U  0.000000000000000E+000
 U  0.000000000000000E+000
 U  0.000000000000000E+000
 U  0.000000000000000E+000
 ***********************************
 CURRENT ELEMENT NUMBER::::          50
 NUMBER OF NODES:::           4
 DOFs:::           2
 TOTAL DOF OF ELEMENT:::            8
 ************************************
          50
 AREA1  0.000000000000000E+000
 AREA1  0.000000000000000E+000
 U  0.000000000000000E+000
 U  0.000000000000000E+000
 U  0.000000000000000E+000
 U  0.000000000000000E+000
 U  0.000000000000000E+000
 U  0.000000000000000E+000
 U  0.000000000000000E+000
 U  0.000000000000000E+000
 ***********************************
 CURRENT ELEMENT NUMBER::::          51
 NUMBER OF NODES:::           4
 DOFs:::           2
 TOTAL DOF OF ELEMENT:::            8
 ************************************
          51
 AREA1  0.000000000000000E+000
 AREA1  0.000000000000000E+000
 U  0.000000000000000E+000
 U  0.000000000000000E+000
 U  0.000000000000000E+000
 U  0.000000000000000E+000
 U  0.000000000000000E+000
 U  0.000000000000000E+000
 U  0.000000000000000E+000
 U  0.000000000000000E+000
 ***********************************
 CURRENT ELEMENT NUMBER::::          52
 NUMBER OF NODES:::           4
 DOFs:::           2
 TOTAL DOF OF ELEMENT:::            8
 ************************************
          52
 AREA1  0.000000000000000E+000
 AREA1  0.000000000000000E+000
 U  0.000000000000000E+000
 U  0.000000000000000E+000
 U  0.000000000000000E+000
 U  0.000000000000000E+000
 U  0.000000000000000E+000
 U  0.000000000000000E+000
 U  0.000000000000000E+000
 U  0.000000000000000E+000
 ***********************************
 CURRENT ELEMENT NUMBER::::          53
 NUMBER OF NODES:::           4
 DOFs:::           2
 TOTAL DOF OF ELEMENT:::            8
 ************************************
          53
 AREA1  0.000000000000000E+000
 AREA1  0.000000000000000E+000
 U  0.000000000000000E+000
 U  0.000000000000000E+000
 U  0.000000000000000E+000
 U  0.000000000000000E+000
 U  0.000000000000000E+000
 U  0.000000000000000E+000
 U  0.000000000000000E+000
 U  0.000000000000000E+000
 ***********************************
 CURRENT ELEMENT NUMBER::::          54
 NUMBER OF NODES:::           4
 DOFs:::           2
 TOTAL DOF OF ELEMENT:::            8
 ************************************
          54
 AREA1  0.000000000000000E+000
 AREA1  0.000000000000000E+000
 U  0.000000000000000E+000
 U  0.000000000000000E+000
 U  0.000000000000000E+000
 U  0.000000000000000E+000
 U  0.000000000000000E+000
 U  0.000000000000000E+000
 U  0.000000000000000E+000
 U  0.000000000000000E+000
 ***********************************
 CURRENT ELEMENT NUMBER::::          55
 NUMBER OF NODES:::           4
 DOFs:::           2
 TOTAL DOF OF ELEMENT:::            8
 ************************************
          55
 AREA1  0.000000000000000E+000
 AREA1  0.000000000000000E+000
 U  0.000000000000000E+000
 U  0.000000000000000E+000
 U  0.000000000000000E+000
 U  0.000000000000000E+000
 U  0.000000000000000E+000
 U  0.000000000000000E+000
 U  0.000000000000000E+000
 U  0.000000000000000E+000
 ***********************************
 CURRENT ELEMENT NUMBER::::          56
 NUMBER OF NODES:::           4
 DOFs:::           2
 TOTAL DOF OF ELEMENT:::            8
 ************************************
          56
 AREA1  0.000000000000000E+000
 AREA1  0.000000000000000E+000
 U  0.000000000000000E+000
 U  0.000000000000000E+000
 U  0.000000000000000E+000
 U  0.000000000000000E+000
 U  0.000000000000000E+000
 U  0.000000000000000E+000
 U  0.000000000000000E+000
 U  0.000000000000000E+000
 ***********************************
 CURRENT ELEMENT NUMBER::::          57
 NUMBER OF NODES:::           4
 DOFs:::           2
 TOTAL DOF OF ELEMENT:::            8
 ************************************
          57
 AREA1  0.000000000000000E+000
 AREA1  0.000000000000000E+000
 U  0.000000000000000E+000
 U  0.000000000000000E+000
 U  0.000000000000000E+000
 U  0.000000000000000E+000
 U  0.000000000000000E+000
 U  0.000000000000000E+000
 U  0.000000000000000E+000
 U  0.000000000000000E+000
 ***********************************
 CURRENT ELEMENT NUMBER::::          58
 NUMBER OF NODES:::           4
 DOFs:::           2
 TOTAL DOF OF ELEMENT:::            8
 ************************************
          58
 AREA1  0.000000000000000E+000
 AREA1  0.000000000000000E+000
 U  0.000000000000000E+000
 U  0.000000000000000E+000
 U  0.000000000000000E+000
 U  0.000000000000000E+000
 U  0.000000000000000E+000
 U  0.000000000000000E+000
 U  0.000000000000000E+000
 U  0.000000000000000E+000
 ***********************************
 CURRENT ELEMENT NUMBER::::          59
 NUMBER OF NODES:::           4
 DOFs:::           2
 TOTAL DOF OF ELEMENT:::            8
 ************************************
          59
 AREA1  0.000000000000000E+000
 AREA1  0.000000000000000E+000
 U  0.000000000000000E+000
 U  0.000000000000000E+000
 U  0.000000000000000E+000
 U  0.000000000000000E+000
 U  0.000000000000000E+000
 U  0.000000000000000E+000
 U  0.000000000000000E+000
 U  0.000000000000000E+000
 ***********************************
 CURRENT ELEMENT NUMBER::::          60
 NUMBER OF NODES:::           4
 DOFs:::           2
 TOTAL DOF OF ELEMENT:::            8
 ************************************
          60
 AREA1  0.000000000000000E+000
 AREA1  0.000000000000000E+000
 U  0.000000000000000E+000
 U  0.000000000000000E+000
 U  0.000000000000000E+000
 U  0.000000000000000E+000
 U  0.000000000000000E+000
 U  0.000000000000000E+000
 U  0.000000000000000E+000
 U  0.000000000000000E+000
 ***********************************
 CURRENT ELEMENT NUMBER::::          61
 NUMBER OF NODES:::           4
 DOFs:::           2
 TOTAL DOF OF ELEMENT:::            8
 ************************************
          61
 AREA1  0.000000000000000E+000
 AREA1  0.000000000000000E+000
 U  0.000000000000000E+000
 U  0.000000000000000E+000
 U  0.000000000000000E+000
 U  0.000000000000000E+000
 U  0.000000000000000E+000
 U  0.000000000000000E+000
 U  0.000000000000000E+000
 U  0.000000000000000E+000
 ***********************************
 CURRENT ELEMENT NUMBER::::          62
 NUMBER OF NODES:::           4
 DOFs:::           2
 TOTAL DOF OF ELEMENT:::            8
 ************************************
          62
 AREA1  0.000000000000000E+000
 AREA1  0.000000000000000E+000
 U  0.000000000000000E+000
 U  0.000000000000000E+000
 U  0.000000000000000E+000
 U  0.000000000000000E+000
 U  0.000000000000000E+000
 U  0.000000000000000E+000
 U  0.000000000000000E+000
 U  0.000000000000000E+000
 ***********************************
 CURRENT ELEMENT NUMBER::::          63
 NUMBER OF NODES:::           4
 DOFs:::           2
 TOTAL DOF OF ELEMENT:::            8
 ************************************
          63
 AREA1  0.000000000000000E+000
 AREA1  0.000000000000000E+000
 U  0.000000000000000E+000
 U  0.000000000000000E+000
 U  0.000000000000000E+000
 U  0.000000000000000E+000
 U  0.000000000000000E+000
 U  0.000000000000000E+000
 U  0.000000000000000E+000
 U  0.000000000000000E+000
 ***********************************
 CURRENT ELEMENT NUMBER::::          64
 NUMBER OF NODES:::           4
 DOFs:::           2
 TOTAL DOF OF ELEMENT:::            8
 ************************************
          64
 AREA1  0.000000000000000E+000
 AREA1  0.000000000000000E+000
 U  0.000000000000000E+000
 U  0.000000000000000E+000
 U  0.000000000000000E+000
 U  0.000000000000000E+000
 U  0.000000000000000E+000
 U  0.000000000000000E+000
 U  0.000000000000000E+000
 U  0.000000000000000E+000
 ***********************************
 CURRENT ELEMENT NUMBER::::          65
 NUMBER OF NODES:::           4
 DOFs:::           2
 TOTAL DOF OF ELEMENT:::            8
 ************************************
          65
 AREA1  0.000000000000000E+000
 AREA1  0.000000000000000E+000
 U  0.000000000000000E+000
 U  0.000000000000000E+000
 U  0.000000000000000E+000
 U  0.000000000000000E+000
 U  0.000000000000000E+000
 U  0.000000000000000E+000
 U  0.000000000000000E+000
 U  0.000000000000000E+000
 ***********************************
 CURRENT ELEMENT NUMBER::::          66
 NUMBER OF NODES:::           4
 DOFs:::           2
 TOTAL DOF OF ELEMENT:::            8
 ************************************
          66
 AREA1  0.000000000000000E+000
 AREA1  0.000000000000000E+000
 U  0.000000000000000E+000
 U  0.000000000000000E+000
 U  0.000000000000000E+000
 U  0.000000000000000E+000
 U  0.000000000000000E+000
 U  0.000000000000000E+000
 U  0.000000000000000E+000
 U  0.000000000000000E+000
 ***********************************
 CURRENT ELEMENT NUMBER::::          67
 NUMBER OF NODES:::           4
 DOFs:::           2
 TOTAL DOF OF ELEMENT:::            8
 ************************************
          67
 AREA1  0.000000000000000E+000
 AREA1  0.000000000000000E+000
 U  0.000000000000000E+000
 U  0.000000000000000E+000
 U  0.000000000000000E+000
 U  0.000000000000000E+000
 U  0.000000000000000E+000
 U  0.000000000000000E+000
 U  0.000000000000000E+000
 U  0.000000000000000E+000
 ***********************************
 CURRENT ELEMENT NUMBER::::          68
 NUMBER OF NODES:::           4
 DOFs:::           2
 TOTAL DOF OF ELEMENT:::            8
 ************************************
          68
 AREA1  0.000000000000000E+000
 AREA1  0.000000000000000E+000
 U  0.000000000000000E+000
 U  0.000000000000000E+000
 U  0.000000000000000E+000
 U  0.000000000000000E+000
 U  0.000000000000000E+000
 U  0.000000000000000E+000
 U  0.000000000000000E+000
 U  0.000000000000000E+000
 ***********************************
 CURRENT ELEMENT NUMBER::::          69
 NUMBER OF NODES:::           4
 DOFs:::           2
 TOTAL DOF OF ELEMENT:::            8
 ************************************
          69
 AREA1  0.000000000000000E+000
 AREA1  0.000000000000000E+000
 U  0.000000000000000E+000
 U  0.000000000000000E+000
 U  0.000000000000000E+000
 U  0.000000000000000E+000
 U  0.000000000000000E+000
 U  0.000000000000000E+000
 U  0.000000000000000E+000
 U  0.000000000000000E+000
 ***********************************
 CURRENT ELEMENT NUMBER::::          70
 NUMBER OF NODES:::           4
 DOFs:::           2
 TOTAL DOF OF ELEMENT:::            8
 ************************************
          70
 AREA1  0.000000000000000E+000
 AREA1  0.000000000000000E+000
 U  0.000000000000000E+000
 U  0.000000000000000E+000
 U  0.000000000000000E+000
 U  0.000000000000000E+000
 U  0.000000000000000E+000
 U  0.000000000000000E+000
 U  0.000000000000000E+000
 U  0.000000000000000E+000
 ***********************************
 CURRENT ELEMENT NUMBER::::          71
 NUMBER OF NODES:::           4
 DOFs:::           2
 TOTAL DOF OF ELEMENT:::            8
 ************************************
          71
 AREA1  0.000000000000000E+000
 AREA1  0.000000000000000E+000
 U  0.000000000000000E+000
 U  0.000000000000000E+000
 U  0.000000000000000E+000
 U  0.000000000000000E+000
 U  0.000000000000000E+000
 U  0.000000000000000E+000
 U  0.000000000000000E+000
 U  0.000000000000000E+000
 ***********************************
 CURRENT ELEMENT NUMBER::::          72
 NUMBER OF NODES:::           4
 DOFs:::           2
 TOTAL DOF OF ELEMENT:::            8
 ************************************
          72
 AREA1  0.000000000000000E+000
 AREA1  0.000000000000000E+000
 U  0.000000000000000E+000
 U  0.000000000000000E+000
 U  0.000000000000000E+000
 U  0.000000000000000E+000
 U  0.000000000000000E+000
 U  0.000000000000000E+000
 U  0.000000000000000E+000
 U  0.000000000000000E+000
 ***********************************
 CURRENT ELEMENT NUMBER::::          73
 NUMBER OF NODES:::           4
 DOFs:::           2
 TOTAL DOF OF ELEMENT:::            8
 ************************************
          73
 AREA1  0.000000000000000E+000
 AREA1  0.000000000000000E+000
 U  0.000000000000000E+000
 U  0.000000000000000E+000
 U  0.000000000000000E+000
 U  0.000000000000000E+000
 U  0.000000000000000E+000
 U  0.000000000000000E+000
 U  0.000000000000000E+000
 U  0.000000000000000E+000
 ***********************************
 CURRENT ELEMENT NUMBER::::          74
 NUMBER OF NODES:::           4
 DOFs:::           2
 TOTAL DOF OF ELEMENT:::            8
 ************************************
          74
 AREA1  0.000000000000000E+000
 AREA1  0.000000000000000E+000
 U  0.000000000000000E+000
 U  0.000000000000000E+000
 U  0.000000000000000E+000
 U  0.000000000000000E+000
 U  0.000000000000000E+000
 U  0.000000000000000E+000
 U  0.000000000000000E+000
 U  0.000000000000000E+000
 ***********************************
 CURRENT ELEMENT NUMBER::::          75
 NUMBER OF NODES:::           4
 DOFs:::           2
 TOTAL DOF OF ELEMENT:::            8
 ************************************
          75
 AREA1  0.000000000000000E+000
 AREA1  0.000000000000000E+000
 U  0.000000000000000E+000
 U  0.000000000000000E+000
 U  0.000000000000000E+000
 U  0.000000000000000E+000
 U  0.000000000000000E+000
 U  0.000000000000000E+000
 U  0.000000000000000E+000
 U  0.000000000000000E+000
 ***********************************
 CURRENT ELEMENT NUMBER::::          76
 NUMBER OF NODES:::           4
 DOFs:::           2
 TOTAL DOF OF ELEMENT:::            8
 ************************************
          76
 AREA1  0.000000000000000E+000
 AREA1  0.000000000000000E+000
 U  0.000000000000000E+000
 U  0.000000000000000E+000
 U  0.000000000000000E+000
 U  0.000000000000000E+000
 U  0.000000000000000E+000
 U  0.000000000000000E+000
 U  0.000000000000000E+000
 U  0.000000000000000E+000
 ***********************************
 CURRENT ELEMENT NUMBER::::          77
 NUMBER OF NODES:::           4
 DOFs:::           2
 TOTAL DOF OF ELEMENT:::            8
 ************************************
          77
 AREA1  0.000000000000000E+000
 AREA1  0.000000000000000E+000
 U  0.000000000000000E+000
 U  0.000000000000000E+000
 U  0.000000000000000E+000
 U  0.000000000000000E+000
 U  0.000000000000000E+000
 U  0.000000000000000E+000
 U  0.000000000000000E+000
 U  0.000000000000000E+000
 ***********************************
 CURRENT ELEMENT NUMBER::::          78
 NUMBER OF NODES:::           4
 DOFs:::           2
 TOTAL DOF OF ELEMENT:::            8
 ************************************
          78
 AREA1  0.000000000000000E+000
 AREA1  0.000000000000000E+000
 U  0.000000000000000E+000
 U  0.000000000000000E+000
 U  0.000000000000000E+000
 U  0.000000000000000E+000
 U  0.000000000000000E+000
 U  0.000000000000000E+000
 U  0.000000000000000E+000
 U  0.000000000000000E+000
 ***********************************
 CURRENT ELEMENT NUMBER::::          79
 NUMBER OF NODES:::           4
 DOFs:::           2
 TOTAL DOF OF ELEMENT:::            8
 ************************************
          79
 AREA1  0.000000000000000E+000
 AREA1  0.000000000000000E+000
 U  0.000000000000000E+000
 U  0.000000000000000E+000
 U  0.000000000000000E+000
 U  0.000000000000000E+000
 U  0.000000000000000E+000
 U  0.000000000000000E+000
 U  0.000000000000000E+000
 U  0.000000000000000E+000
 ***********************************
 CURRENT ELEMENT NUMBER::::          80
 NUMBER OF NODES:::           4
 DOFs:::           2
 TOTAL DOF OF ELEMENT:::            8
 ************************************
          80
 AREA1  0.000000000000000E+000
 AREA1  0.000000000000000E+000
 U  0.000000000000000E+000
 U  0.000000000000000E+000
 U  0.000000000000000E+000
 U  0.000000000000000E+000
 U  0.000000000000000E+000
 U  0.000000000000000E+000
 U  0.000000000000000E+000
 U  0.000000000000000E+000
 ***********************************
 CURRENT ELEMENT NUMBER::::          81
 NUMBER OF NODES:::           4
 DOFs:::           2
 TOTAL DOF OF ELEMENT:::            8
 ************************************
          81
 AREA1  0.000000000000000E+000
 AREA1  0.000000000000000E+000
 U  0.000000000000000E+000
 U  0.000000000000000E+000
 U  0.000000000000000E+000
 U  0.000000000000000E+000
 U  0.000000000000000E+000
 U  0.000000000000000E+000
 U  0.000000000000000E+000
 U  0.000000000000000E+000
 ***********************************
 CURRENT ELEMENT NUMBER::::          82
 NUMBER OF NODES:::           4
 DOFs:::           2
 TOTAL DOF OF ELEMENT:::            8
 ************************************
          82
 AREA1  0.000000000000000E+000
 AREA1  0.000000000000000E+000
 U  0.000000000000000E+000
 U  0.000000000000000E+000
 U  0.000000000000000E+000
 U  0.000000000000000E+000
 U  0.000000000000000E+000
 U  0.000000000000000E+000
 U  0.000000000000000E+000
 U  0.000000000000000E+000
 ***********************************
 CURRENT ELEMENT NUMBER::::          83
 NUMBER OF NODES:::           4
 DOFs:::           2
 TOTAL DOF OF ELEMENT:::            8
 ************************************
          83
 AREA1  0.000000000000000E+000
 AREA1  0.000000000000000E+000
 U  0.000000000000000E+000
 U  0.000000000000000E+000
 U  0.000000000000000E+000
 U  0.000000000000000E+000
 U  0.000000000000000E+000
 U  0.000000000000000E+000
 U  0.000000000000000E+000
 U  0.000000000000000E+000
 ***********************************
 CURRENT ELEMENT NUMBER::::          84
 NUMBER OF NODES:::           4
 DOFs:::           2
 TOTAL DOF OF ELEMENT:::            8
 ************************************
          84
 AREA1  0.000000000000000E+000
 AREA1  0.000000000000000E+000
 U  0.000000000000000E+000
 U  0.000000000000000E+000
 U  0.000000000000000E+000
 U  0.000000000000000E+000
 U  0.000000000000000E+000
 U  0.000000000000000E+000
 U  0.000000000000000E+000
 U  0.000000000000000E+000
 ***********************************
 CURRENT ELEMENT NUMBER::::          85
 NUMBER OF NODES:::           4
 DOFs:::           2
 TOTAL DOF OF ELEMENT:::            8
 ************************************
          85
 AREA1  0.000000000000000E+000
 AREA1  0.000000000000000E+000
 U  0.000000000000000E+000
 U  0.000000000000000E+000
 U  0.000000000000000E+000
 U  0.000000000000000E+000
 U  0.000000000000000E+000
 U  0.000000000000000E+000
 U  0.000000000000000E+000
 U  0.000000000000000E+000
 ***********************************
 CURRENT ELEMENT NUMBER::::          86
 NUMBER OF NODES:::           4
 DOFs:::           2
 TOTAL DOF OF ELEMENT:::            8
 ************************************
          86
 AREA1  0.000000000000000E+000
 AREA1  0.000000000000000E+000
 U  0.000000000000000E+000
 U  0.000000000000000E+000
 U  0.000000000000000E+000
 U  0.000000000000000E+000
 U  0.000000000000000E+000
 U  0.000000000000000E+000
 U  0.000000000000000E+000
 U  0.000000000000000E+000
 ***********************************
 CURRENT ELEMENT NUMBER::::          87
 NUMBER OF NODES:::           4
 DOFs:::           2
 TOTAL DOF OF ELEMENT:::            8
 ************************************
          87
 AREA1  0.000000000000000E+000
 AREA1  0.000000000000000E+000
 U  0.000000000000000E+000
 U  0.000000000000000E+000
 U  0.000000000000000E+000
 U  0.000000000000000E+000
 U  0.000000000000000E+000
 U  0.000000000000000E+000
 U  0.000000000000000E+000
 U  0.000000000000000E+000
 ***********************************
 CURRENT ELEMENT NUMBER::::          88
 NUMBER OF NODES:::           4
 DOFs:::           2
 TOTAL DOF OF ELEMENT:::            8
 ************************************
          88
 AREA1  0.000000000000000E+000
 AREA1  0.000000000000000E+000
 U  0.000000000000000E+000
 U  0.000000000000000E+000
 U  0.000000000000000E+000
 U  0.000000000000000E+000
 U  0.000000000000000E+000
 U  0.000000000000000E+000
 U  0.000000000000000E+000
 U  0.000000000000000E+000
 ***********************************
 CURRENT ELEMENT NUMBER::::          89
 NUMBER OF NODES:::           4
 DOFs:::           2
 TOTAL DOF OF ELEMENT:::            8
 ************************************
          89
 AREA1  0.000000000000000E+000
 AREA1  0.000000000000000E+000
 U  0.000000000000000E+000
 U  0.000000000000000E+000
 U  0.000000000000000E+000
 U  0.000000000000000E+000
 U  0.000000000000000E+000
 U  0.000000000000000E+000
 U  0.000000000000000E+000
 U  0.000000000000000E+000
 ***********************************
 CURRENT ELEMENT NUMBER::::          90
 NUMBER OF NODES:::           4
 DOFs:::           2
 TOTAL DOF OF ELEMENT:::            8
 ************************************
          90
 AREA1  0.000000000000000E+000
 AREA1  0.000000000000000E+000
 U  0.000000000000000E+000
 U  0.000000000000000E+000
 U  0.000000000000000E+000
 U  0.000000000000000E+000
 U  0.000000000000000E+000
 U  0.000000000000000E+000
 U  0.000000000000000E+000
 U  0.000000000000000E+000
 ***********************************
 CURRENT ELEMENT NUMBER::::          91
 NUMBER OF NODES:::           4
 DOFs:::           2
 TOTAL DOF OF ELEMENT:::            8
 ************************************
          91
 AREA1  0.000000000000000E+000
 AREA1  0.000000000000000E+000
 U  0.000000000000000E+000
 U  0.000000000000000E+000
 U  0.000000000000000E+000
 U  0.000000000000000E+000
 U  0.000000000000000E+000
 U  0.000000000000000E+000
 U  0.000000000000000E+000
 U  0.000000000000000E+000
 ***********************************
 CURRENT ELEMENT NUMBER::::          92
 NUMBER OF NODES:::           4
 DOFs:::           2
 TOTAL DOF OF ELEMENT:::            8
 ************************************
          92
 AREA1  0.000000000000000E+000
 AREA1  0.000000000000000E+000
 U  0.000000000000000E+000
 U  0.000000000000000E+000
 U  0.000000000000000E+000
 U  0.000000000000000E+000
 U  0.000000000000000E+000
 U  0.000000000000000E+000
 U  0.000000000000000E+000
 U  0.000000000000000E+000
 ***********************************
 CURRENT ELEMENT NUMBER::::          93
 NUMBER OF NODES:::           4
 DOFs:::           2
 TOTAL DOF OF ELEMENT:::            8
 ************************************
          93
 AREA1  0.000000000000000E+000
 AREA1  0.000000000000000E+000
 U  0.000000000000000E+000
 U  0.000000000000000E+000
 U  0.000000000000000E+000
 U  0.000000000000000E+000
 U  0.000000000000000E+000
 U  0.000000000000000E+000
 U  0.000000000000000E+000
 U  0.000000000000000E+000
 ***********************************
 CURRENT ELEMENT NUMBER::::          94
 NUMBER OF NODES:::           4
 DOFs:::           2
 TOTAL DOF OF ELEMENT:::            8
 ************************************
          94
 AREA1  0.000000000000000E+000
 AREA1  0.000000000000000E+000
 U  0.000000000000000E+000
 U  0.000000000000000E+000
 U  0.000000000000000E+000
 U  0.000000000000000E+000
 U  0.000000000000000E+000
 U  0.000000000000000E+000
 U  0.000000000000000E+000
 U  0.000000000000000E+000
 ***********************************
 CURRENT ELEMENT NUMBER::::          95
 NUMBER OF NODES:::           4
 DOFs:::           2
 TOTAL DOF OF ELEMENT:::            8
 ************************************
          95
 AREA1  0.000000000000000E+000
 AREA1  0.000000000000000E+000
 U  0.000000000000000E+000
 U  0.000000000000000E+000
 U  0.000000000000000E+000
 U  0.000000000000000E+000
 U  0.000000000000000E+000
 U  0.000000000000000E+000
 U  0.000000000000000E+000
 U  0.000000000000000E+000
 ***********************************
 CURRENT ELEMENT NUMBER::::          96
 NUMBER OF NODES:::           4
 DOFs:::           2
 TOTAL DOF OF ELEMENT:::            8
 ************************************
          96
 AREA1  0.000000000000000E+000
 AREA1  0.000000000000000E+000
 U  0.000000000000000E+000
 U  0.000000000000000E+000
 U  0.000000000000000E+000
 U  0.000000000000000E+000
 U  0.000000000000000E+000
 U  0.000000000000000E+000
 U  0.000000000000000E+000
 U  0.000000000000000E+000
 ***********************************
 CURRENT ELEMENT NUMBER::::          97
 NUMBER OF NODES:::           4
 DOFs:::           2
 TOTAL DOF OF ELEMENT:::            8
 ************************************
          97
 AREA1  0.000000000000000E+000
 AREA1  0.000000000000000E+000
 U  0.000000000000000E+000
 U  0.000000000000000E+000
 U  0.000000000000000E+000
 U  0.000000000000000E+000
 U  0.000000000000000E+000
 U  0.000000000000000E+000
 U  0.000000000000000E+000
 U  0.000000000000000E+000
 ***********************************
 CURRENT ELEMENT NUMBER::::          98
 NUMBER OF NODES:::           4
 DOFs:::           2
 TOTAL DOF OF ELEMENT:::            8
 ************************************
          98
 AREA1  0.000000000000000E+000
 AREA1  0.000000000000000E+000
 U  0.000000000000000E+000
 U  0.000000000000000E+000
 U  0.000000000000000E+000
 U  0.000000000000000E+000
 U  0.000000000000000E+000
 U  0.000000000000000E+000
 U  0.000000000000000E+000
 U  0.000000000000000E+000
 ***********************************
 CURRENT ELEMENT NUMBER::::          99
 NUMBER OF NODES:::           4
 DOFs:::           2
 TOTAL DOF OF ELEMENT:::            8
 ************************************
          99
 AREA1  0.000000000000000E+000
 AREA1  0.000000000000000E+000
 U  0.000000000000000E+000
 U  0.000000000000000E+000
 U  0.000000000000000E+000
 U  0.000000000000000E+000
 U  0.000000000000000E+000
 U  0.000000000000000E+000
 U  0.000000000000000E+000
 U  0.000000000000000E+000
 ***********************************
 CURRENT ELEMENT NUMBER::::         100
 NUMBER OF NODES:::           4
 DOFs:::           2
 TOTAL DOF OF ELEMENT:::            8
 ************************************
         100
 AREA1  0.000000000000000E+000
 AREA1  0.000000000000000E+000
 U  0.000000000000000E+000
 U  0.000000000000000E+000
 U  0.000000000000000E+000
 U  0.000000000000000E+000
 U  0.000000000000000E+000
 U  0.000000000000000E+000
 U  0.000000000000000E+000
 U  0.000000000000000E+000
 ***********************************
 CURRENT ELEMENT NUMBER::::         101
 NUMBER OF NODES:::           4
 DOFs:::           2
 TOTAL DOF OF ELEMENT:::            8
 ************************************
         101
 AREA1  0.000000000000000E+000
 AREA1  0.000000000000000E+000
 U  0.000000000000000E+000
 U  0.000000000000000E+000
 U  0.000000000000000E+000
 U  0.000000000000000E+000
 U  0.000000000000000E+000
 U  0.000000000000000E+000
 U  0.000000000000000E+000
 U  0.000000000000000E+000
 ***********************************
 CURRENT ELEMENT NUMBER::::         102
 NUMBER OF NODES:::           4
 DOFs:::           2
 TOTAL DOF OF ELEMENT:::            8
 ************************************
         102
 AREA1  0.000000000000000E+000
 AREA1  0.000000000000000E+000
 U  0.000000000000000E+000
 U  0.000000000000000E+000
 U  0.000000000000000E+000
 U  0.000000000000000E+000
 U  0.000000000000000E+000
 U  0.000000000000000E+000
 U  0.000000000000000E+000
 U  0.000000000000000E+000
 ***********************************
 CURRENT ELEMENT NUMBER::::         103
 NUMBER OF NODES:::           4
 DOFs:::           2
 TOTAL DOF OF ELEMENT:::            8
 ************************************
         103
 AREA1  0.000000000000000E+000
 AREA1  0.000000000000000E+000
 U  0.000000000000000E+000
 U  0.000000000000000E+000
 U  0.000000000000000E+000
 U  0.000000000000000E+000
 U  0.000000000000000E+000
 U  0.000000000000000E+000
 U  0.000000000000000E+000
 U  0.000000000000000E+000
 ***********************************
 CURRENT ELEMENT NUMBER::::         104
 NUMBER OF NODES:::           4
 DOFs:::           2
 TOTAL DOF OF ELEMENT:::            8
 ************************************
         104
 AREA1  0.000000000000000E+000
 AREA1  0.000000000000000E+000
 U  0.000000000000000E+000
 U  0.000000000000000E+000
 U  0.000000000000000E+000
 U  0.000000000000000E+000
 U  0.000000000000000E+000
 U  0.000000000000000E+000
 U  0.000000000000000E+000
 U  0.000000000000000E+000
 ***********************************
 CURRENT ELEMENT NUMBER::::         105
 NUMBER OF NODES:::           4
 DOFs:::           2
 TOTAL DOF OF ELEMENT:::            8
 ************************************
         105
 AREA1  0.000000000000000E+000
 AREA1  0.000000000000000E+000
 U  0.000000000000000E+000
 U  0.000000000000000E+000
 U  0.000000000000000E+000
 U  0.000000000000000E+000
 U  0.000000000000000E+000
 U  0.000000000000000E+000
 U  0.000000000000000E+000
 U  0.000000000000000E+000
 ***********************************
 CURRENT ELEMENT NUMBER::::         106
 NUMBER OF NODES:::           4
 DOFs:::           2
 TOTAL DOF OF ELEMENT:::            8
 ************************************
         106
 AREA1  0.000000000000000E+000
 AREA1  0.000000000000000E+000
 U  0.000000000000000E+000
 U  0.000000000000000E+000
 U  0.000000000000000E+000
 U  0.000000000000000E+000
 U  0.000000000000000E+000
 U  0.000000000000000E+000
 U  0.000000000000000E+000
 U  0.000000000000000E+000
 ***********************************
 CURRENT ELEMENT NUMBER::::         107
 NUMBER OF NODES:::           4
 DOFs:::           2
 TOTAL DOF OF ELEMENT:::            8
 ************************************
         107
 AREA1  0.000000000000000E+000
 AREA1  0.000000000000000E+000
 U  0.000000000000000E+000
 U  0.000000000000000E+000
 U  0.000000000000000E+000
 U  0.000000000000000E+000
 U  0.000000000000000E+000
 U  0.000000000000000E+000
 U  0.000000000000000E+000
 U  0.000000000000000E+000
 ***********************************
 CURRENT ELEMENT NUMBER::::         108
 NUMBER OF NODES:::           4
 DOFs:::           2
 TOTAL DOF OF ELEMENT:::            8
 ************************************
         108
 AREA1  0.000000000000000E+000
 AREA1  0.000000000000000E+000
 U  0.000000000000000E+000
 U  0.000000000000000E+000
 U  0.000000000000000E+000
 U  0.000000000000000E+000
 U  0.000000000000000E+000
 U  0.000000000000000E+000
 U  0.000000000000000E+000
 U  0.000000000000000E+000
 ***********************************
 CURRENT ELEMENT NUMBER::::         109
 NUMBER OF NODES:::           4
 DOFs:::           2
 TOTAL DOF OF ELEMENT:::            8
 ************************************
         109
 AREA1  0.000000000000000E+000
 AREA1  0.000000000000000E+000
 U  0.000000000000000E+000
 U  0.000000000000000E+000
 U  0.000000000000000E+000
 U  0.000000000000000E+000
 U  0.000000000000000E+000
 U  0.000000000000000E+000
 U  0.000000000000000E+000
 U  0.000000000000000E+000
 ***********************************
 CURRENT ELEMENT NUMBER::::         110
 NUMBER OF NODES:::           4
 DOFs:::           2
 TOTAL DOF OF ELEMENT:::            8
 ************************************
         110
 AREA1  0.000000000000000E+000
 AREA1  0.000000000000000E+000
 U  0.000000000000000E+000
 U  0.000000000000000E+000
 U  0.000000000000000E+000
 U  0.000000000000000E+000
 U  0.000000000000000E+000
 U  0.000000000000000E+000
 U  0.000000000000000E+000
 U  0.000000000000000E+000
 ***********************************
 CURRENT ELEMENT NUMBER::::         111
 NUMBER OF NODES:::           4
 DOFs:::           2
 TOTAL DOF OF ELEMENT:::            8
 ************************************
         111
 AREA1  0.000000000000000E+000
 AREA1  0.000000000000000E+000
 U  0.000000000000000E+000
 U  0.000000000000000E+000
 U  0.000000000000000E+000
 U  0.000000000000000E+000
 U  0.000000000000000E+000
 U  0.000000000000000E+000
 U  0.000000000000000E+000
 U  0.000000000000000E+000
 ***********************************
 CURRENT ELEMENT NUMBER::::         112
 NUMBER OF NODES:::           4
 DOFs:::           2
 TOTAL DOF OF ELEMENT:::            8
 ************************************
         112
 AREA1  0.000000000000000E+000
 AREA1  0.000000000000000E+000
 U  0.000000000000000E+000
 U  0.000000000000000E+000
 U  0.000000000000000E+000
 U  0.000000000000000E+000
 U  0.000000000000000E+000
 U  0.000000000000000E+000
 U  0.000000000000000E+000
 U  0.000000000000000E+000
 ***********************************
 CURRENT ELEMENT NUMBER::::         113
 NUMBER OF NODES:::           4
 DOFs:::           2
 TOTAL DOF OF ELEMENT:::            8
 ************************************
         113
 AREA1  0.000000000000000E+000
 AREA1  0.000000000000000E+000
 U  0.000000000000000E+000
 U  0.000000000000000E+000
 U  0.000000000000000E+000
 U  0.000000000000000E+000
 U  0.000000000000000E+000
 U  0.000000000000000E+000
 U  0.000000000000000E+000
 U  0.000000000000000E+000
 ***********************************
 CURRENT ELEMENT NUMBER::::         114
 NUMBER OF NODES:::           4
 DOFs:::           2
 TOTAL DOF OF ELEMENT:::            8
 ************************************
         114
 AREA1  0.000000000000000E+000
 AREA1  0.000000000000000E+000
 U  0.000000000000000E+000
 U  0.000000000000000E+000
 U  0.000000000000000E+000
 U  0.000000000000000E+000
 U  0.000000000000000E+000
 U  0.000000000000000E+000
 U  0.000000000000000E+000
 U  0.000000000000000E+000
 ***********************************
 CURRENT ELEMENT NUMBER::::         115
 NUMBER OF NODES:::           4
 DOFs:::           2
 TOTAL DOF OF ELEMENT:::            8
 ************************************
         115
 AREA1  0.000000000000000E+000
 AREA1  0.000000000000000E+000
 U  0.000000000000000E+000
 U  0.000000000000000E+000
 U  0.000000000000000E+000
 U  0.000000000000000E+000
 U  0.000000000000000E+000
 U  0.000000000000000E+000
 U  0.000000000000000E+000
 U  0.000000000000000E+000
 ***********************************
 CURRENT ELEMENT NUMBER::::         116
 NUMBER OF NODES:::           4
 DOFs:::           2
 TOTAL DOF OF ELEMENT:::            8
 ************************************
         116
 AREA1  0.000000000000000E+000
 AREA1  0.000000000000000E+000
 U  0.000000000000000E+000
 U  0.000000000000000E+000
 U  0.000000000000000E+000
 U  0.000000000000000E+000
 U  0.000000000000000E+000
 U  0.000000000000000E+000
 U  0.000000000000000E+000
 U  0.000000000000000E+000
 ***********************************
 CURRENT ELEMENT NUMBER::::         117
 NUMBER OF NODES:::           4
 DOFs:::           2
 TOTAL DOF OF ELEMENT:::            8
 ************************************
         117
 AREA1  0.000000000000000E+000
 AREA1  0.000000000000000E+000
 U  0.000000000000000E+000
 U  0.000000000000000E+000
 U  0.000000000000000E+000
 U  0.000000000000000E+000
 U  0.000000000000000E+000
 U  0.000000000000000E+000
 U  0.000000000000000E+000
 U  0.000000000000000E+000
 ***********************************
 CURRENT ELEMENT NUMBER::::         118
 NUMBER OF NODES:::           4
 DOFs:::           2
 TOTAL DOF OF ELEMENT:::            8
 ************************************
         118
 AREA1  0.000000000000000E+000
 AREA1  0.000000000000000E+000
 U  0.000000000000000E+000
 U  0.000000000000000E+000
 U  0.000000000000000E+000
 U  0.000000000000000E+000
 U  0.000000000000000E+000
 U  0.000000000000000E+000
 U  0.000000000000000E+000
 U  0.000000000000000E+000
 ***********************************
 CURRENT ELEMENT NUMBER::::         119
 NUMBER OF NODES:::           4
 DOFs:::           2
 TOTAL DOF OF ELEMENT:::            8
 ************************************
         119
 AREA1  0.000000000000000E+000
 AREA1  0.000000000000000E+000
 U  0.000000000000000E+000
 U  0.000000000000000E+000
 U  0.000000000000000E+000
 U  0.000000000000000E+000
 U  0.000000000000000E+000
 U  0.000000000000000E+000
 U  0.000000000000000E+000
 U  0.000000000000000E+000
 ***********************************
 CURRENT ELEMENT NUMBER::::         120
 NUMBER OF NODES:::           4
 DOFs:::           2
 TOTAL DOF OF ELEMENT:::            8
 ************************************
         120
 AREA1  0.000000000000000E+000
 AREA1  0.000000000000000E+000
 U  0.000000000000000E+000
 U  0.000000000000000E+000
 U  0.000000000000000E+000
 U  0.000000000000000E+000
 U  0.000000000000000E+000
 U  0.000000000000000E+000
 U  0.000000000000000E+000
 U  0.000000000000000E+000
 ***********************************
 CURRENT ELEMENT NUMBER::::         121
 NUMBER OF NODES:::           4
 DOFs:::           2
 TOTAL DOF OF ELEMENT:::            8
 ************************************
         121
 AREA1  0.000000000000000E+000
 AREA1  0.000000000000000E+000
 U  0.000000000000000E+000
 U  0.000000000000000E+000
 U  0.000000000000000E+000
 U  0.000000000000000E+000
 U  0.000000000000000E+000
 U  0.000000000000000E+000
 U  0.000000000000000E+000
 U  0.000000000000000E+000
 ***********************************
 CURRENT ELEMENT NUMBER::::         122
 NUMBER OF NODES:::           4
 DOFs:::           2
 TOTAL DOF OF ELEMENT:::            8
 ************************************
         122
 AREA1  0.000000000000000E+000
 AREA1  0.000000000000000E+000
 U  0.000000000000000E+000
 U  0.000000000000000E+000
 U  0.000000000000000E+000
 U  0.000000000000000E+000
 U  0.000000000000000E+000
 U  0.000000000000000E+000
 U  0.000000000000000E+000
 U  0.000000000000000E+000
 ***********************************
 CURRENT ELEMENT NUMBER::::         123
 NUMBER OF NODES:::           4
 DOFs:::           2
 TOTAL DOF OF ELEMENT:::            8
 ************************************
         123
 AREA1  0.000000000000000E+000
 AREA1  0.000000000000000E+000
 U  0.000000000000000E+000
 U  0.000000000000000E+000
 U  0.000000000000000E+000
 U  0.000000000000000E+000
 U  0.000000000000000E+000
 U  0.000000000000000E+000
 U  0.000000000000000E+000
 U  0.000000000000000E+000
 ***********************************
 CURRENT ELEMENT NUMBER::::         124
 NUMBER OF NODES:::           4
 DOFs:::           2
 TOTAL DOF OF ELEMENT:::            8
 ************************************
         124
 AREA1  0.000000000000000E+000
 AREA1  0.000000000000000E+000
 U  0.000000000000000E+000
 U  0.000000000000000E+000
 U  0.000000000000000E+000
 U  0.000000000000000E+000
 U  0.000000000000000E+000
 U  0.000000000000000E+000
 U  0.000000000000000E+000
 U  0.000000000000000E+000
 ***********************************
 CURRENT ELEMENT NUMBER::::         125
 NUMBER OF NODES:::           4
 DOFs:::           2
 TOTAL DOF OF ELEMENT:::            8
 ************************************
         125
 AREA1  0.000000000000000E+000
 AREA1  0.000000000000000E+000
 U  0.000000000000000E+000
 U  0.000000000000000E+000
 U  0.000000000000000E+000
 U  0.000000000000000E+000
 U  0.000000000000000E+000
 U  0.000000000000000E+000
 U  0.000000000000000E+000
 U  0.000000000000000E+000
 ***********************************
 CURRENT ELEMENT NUMBER::::         126
 NUMBER OF NODES:::           4
 DOFs:::           2
 TOTAL DOF OF ELEMENT:::            8
 ************************************
         126
 AREA1  0.000000000000000E+000
 AREA1  0.000000000000000E+000
 U  0.000000000000000E+000
 U  0.000000000000000E+000
 U  0.000000000000000E+000
 U  0.000000000000000E+000
 U  0.000000000000000E+000
 U  0.000000000000000E+000
 U  0.000000000000000E+000
 U  0.000000000000000E+000
 ***********************************
 CURRENT ELEMENT NUMBER::::         127
 NUMBER OF NODES:::           4
 DOFs:::           2
 TOTAL DOF OF ELEMENT:::            8
 ************************************
         127
 AREA1  0.000000000000000E+000
 AREA1  0.000000000000000E+000
 U  0.000000000000000E+000
 U  0.000000000000000E+000
 U  0.000000000000000E+000
 U  0.000000000000000E+000
 U  0.000000000000000E+000
 U  0.000000000000000E+000
 U  0.000000000000000E+000
 U  0.000000000000000E+000
 ***********************************
 CURRENT ELEMENT NUMBER::::         128
 NUMBER OF NODES:::           4
 DOFs:::           2
 TOTAL DOF OF ELEMENT:::            8
 ************************************
         128
 AREA1  0.000000000000000E+000
 AREA1  0.000000000000000E+000
 U  0.000000000000000E+000
 U  0.000000000000000E+000
 U  0.000000000000000E+000
 U  0.000000000000000E+000
 U  0.000000000000000E+000
 U  0.000000000000000E+000
 U  0.000000000000000E+000
 U  0.000000000000000E+000
 ***********************************
 CURRENT ELEMENT NUMBER::::         129
 NUMBER OF NODES:::           4
 DOFs:::           2
 TOTAL DOF OF ELEMENT:::            8
 ************************************
         129
 AREA1  0.000000000000000E+000
 AREA1  0.000000000000000E+000
 U  0.000000000000000E+000
 U  0.000000000000000E+000
 U  0.000000000000000E+000
 U  0.000000000000000E+000
 U  0.000000000000000E+000
 U  0.000000000000000E+000
 U  0.000000000000000E+000
 U  0.000000000000000E+000
 ***********************************
 CURRENT ELEMENT NUMBER::::         130
 NUMBER OF NODES:::           4
 DOFs:::           2
 TOTAL DOF OF ELEMENT:::            8
 ************************************
         130
 AREA1  0.000000000000000E+000
 AREA1  0.000000000000000E+000
 U  0.000000000000000E+000
 U  0.000000000000000E+000
 U  0.000000000000000E+000
 U  0.000000000000000E+000
 U  0.000000000000000E+000
 U  0.000000000000000E+000
 U  0.000000000000000E+000
 U  0.000000000000000E+000
 ***********************************
 CURRENT ELEMENT NUMBER::::         131
 NUMBER OF NODES:::           4
 DOFs:::           2
 TOTAL DOF OF ELEMENT:::            8
 ************************************
         131
 AREA1  0.000000000000000E+000
 AREA1  0.000000000000000E+000
 U  0.000000000000000E+000
 U  0.000000000000000E+000
 U  0.000000000000000E+000
 U  0.000000000000000E+000
 U  0.000000000000000E+000
 U  0.000000000000000E+000
 U  0.000000000000000E+000
 U  0.000000000000000E+000
 ***********************************
 CURRENT ELEMENT NUMBER::::         132
 NUMBER OF NODES:::           4
 DOFs:::           2
 TOTAL DOF OF ELEMENT:::            8
 ************************************
         132
 AREA1  0.000000000000000E+000
 AREA1  0.000000000000000E+000
 U  0.000000000000000E+000
 U  0.000000000000000E+000
 U  0.000000000000000E+000
 U  0.000000000000000E+000
 U  0.000000000000000E+000
 U  0.000000000000000E+000
 U  0.000000000000000E+000
 U  0.000000000000000E+000
 ***********************************
 CURRENT ELEMENT NUMBER::::         133
 NUMBER OF NODES:::           4
 DOFs:::           2
 TOTAL DOF OF ELEMENT:::            8
 ************************************
         133
 AREA1  0.000000000000000E+000
 AREA1  0.000000000000000E+000
 U  0.000000000000000E+000
 U  0.000000000000000E+000
 U  0.000000000000000E+000
 U  0.000000000000000E+000
 U  0.000000000000000E+000
 U  0.000000000000000E+000
 U  0.000000000000000E+000
 U  0.000000000000000E+000
 ***********************************
 CURRENT ELEMENT NUMBER::::         134
 NUMBER OF NODES:::           4
 DOFs:::           2
 TOTAL DOF OF ELEMENT:::            8
 ************************************
         134
 AREA1  0.000000000000000E+000
 AREA1  0.000000000000000E+000
 U  0.000000000000000E+000
 U  0.000000000000000E+000
 U  0.000000000000000E+000
 U  0.000000000000000E+000
 U  0.000000000000000E+000
 U  0.000000000000000E+000
 U  0.000000000000000E+000
 U  0.000000000000000E+000
 ***********************************
 CURRENT ELEMENT NUMBER::::         135
 NUMBER OF NODES:::           4
 DOFs:::           2
 TOTAL DOF OF ELEMENT:::            8
 ************************************
         135
 AREA1  0.000000000000000E+000
 AREA1  0.000000000000000E+000
 U  0.000000000000000E+000
 U  0.000000000000000E+000
 U  0.000000000000000E+000
 U  0.000000000000000E+000
 U  0.000000000000000E+000
 U  0.000000000000000E+000
 U  0.000000000000000E+000
 U  0.000000000000000E+000
 ***********************************
 CURRENT ELEMENT NUMBER::::         136
 NUMBER OF NODES:::           4
 DOFs:::           2
 TOTAL DOF OF ELEMENT:::            8
 ************************************
         136
 AREA1  0.000000000000000E+000
 AREA1  0.000000000000000E+000
 U  0.000000000000000E+000
 U  0.000000000000000E+000
 U  0.000000000000000E+000
 U  0.000000000000000E+000
 U  0.000000000000000E+000
 U  0.000000000000000E+000
 U  0.000000000000000E+000
 U  0.000000000000000E+000
 ***********************************
 CURRENT ELEMENT NUMBER::::         137
 NUMBER OF NODES:::           4
 DOFs:::           2
 TOTAL DOF OF ELEMENT:::            8
 ************************************
         137
 AREA1  0.000000000000000E+000
 AREA1  0.000000000000000E+000
 U  0.000000000000000E+000
 U  0.000000000000000E+000
 U  0.000000000000000E+000
 U  0.000000000000000E+000
 U  0.000000000000000E+000
 U  0.000000000000000E+000
 U  0.000000000000000E+000
 U  0.000000000000000E+000
 ***********************************
 CURRENT ELEMENT NUMBER::::         138
 NUMBER OF NODES:::           4
 DOFs:::           2
 TOTAL DOF OF ELEMENT:::            8
 ************************************
         138
 AREA1  0.000000000000000E+000
 AREA1  0.000000000000000E+000
 U  0.000000000000000E+000
 U  0.000000000000000E+000
 U  0.000000000000000E+000
 U  0.000000000000000E+000
 U  0.000000000000000E+000
 U  0.000000000000000E+000
 U  0.000000000000000E+000
 U  0.000000000000000E+000
 ***********************************
 CURRENT ELEMENT NUMBER::::         139
 NUMBER OF NODES:::           4
 DOFs:::           2
 TOTAL DOF OF ELEMENT:::            8
 ************************************
         139
 AREA1  0.000000000000000E+000
 AREA1  0.000000000000000E+000
 U  0.000000000000000E+000
 U  0.000000000000000E+000
 U  0.000000000000000E+000
 U  0.000000000000000E+000
 U  0.000000000000000E+000
 U  0.000000000000000E+000
 U  0.000000000000000E+000
 U  0.000000000000000E+000
 ***********************************
 CURRENT ELEMENT NUMBER::::         140
 NUMBER OF NODES:::           4
 DOFs:::           2
 TOTAL DOF OF ELEMENT:::            8
 ************************************
         140
 AREA1  0.000000000000000E+000
 AREA1  0.000000000000000E+000
 U  0.000000000000000E+000
 U  0.000000000000000E+000
 U  0.000000000000000E+000
 U  0.000000000000000E+000
 U  0.000000000000000E+000
 U  0.000000000000000E+000
 U  0.000000000000000E+000
 U  0.000000000000000E+000
 ***********************************
 CURRENT ELEMENT NUMBER::::         141
 NUMBER OF NODES:::           4
 DOFs:::           2
 TOTAL DOF OF ELEMENT:::            8
 ************************************
         141
 AREA1  0.000000000000000E+000
 AREA1  0.000000000000000E+000
 U  0.000000000000000E+000
 U  0.000000000000000E+000
 U  0.000000000000000E+000
 U  0.000000000000000E+000
 U  0.000000000000000E+000
 U  0.000000000000000E+000
 U  0.000000000000000E+000
 U  0.000000000000000E+000
 ***********************************
 CURRENT ELEMENT NUMBER::::         142
 NUMBER OF NODES:::           4
 DOFs:::           2
 TOTAL DOF OF ELEMENT:::            8
 ************************************
         142
 AREA1  0.000000000000000E+000
 AREA1  0.000000000000000E+000
 U  0.000000000000000E+000
 U  0.000000000000000E+000
 U  0.000000000000000E+000
 U  0.000000000000000E+000
 U  0.000000000000000E+000
 U  0.000000000000000E+000
 U  0.000000000000000E+000
 U  0.000000000000000E+000
 ***********************************
 CURRENT ELEMENT NUMBER::::         143
 NUMBER OF NODES:::           4
 DOFs:::           2
 TOTAL DOF OF ELEMENT:::            8
 ************************************
         143
 AREA1  0.000000000000000E+000
 AREA1  0.000000000000000E+000
 U  0.000000000000000E+000
 U  0.000000000000000E+000
 U  0.000000000000000E+000
 U  0.000000000000000E+000
 U  0.000000000000000E+000
 U  0.000000000000000E+000
 U  0.000000000000000E+000
 U  0.000000000000000E+000
 ***********************************
 CURRENT ELEMENT NUMBER::::         144
 NUMBER OF NODES:::           4
 DOFs:::           2
 TOTAL DOF OF ELEMENT:::            8
 ************************************
         144
 AREA1  0.000000000000000E+000
 AREA1  0.000000000000000E+000
 U  0.000000000000000E+000
 U  0.000000000000000E+000
 U  0.000000000000000E+000
 U  0.000000000000000E+000
 U  0.000000000000000E+000
 U  0.000000000000000E+000
 U  0.000000000000000E+000
 U  0.000000000000000E+000
 ***********************************
 CURRENT ELEMENT NUMBER::::         145
 NUMBER OF NODES:::           4
 DOFs:::           2
 TOTAL DOF OF ELEMENT:::            8
 ************************************
         145
 AREA1  0.000000000000000E+000
 AREA1  0.000000000000000E+000
 U  0.000000000000000E+000
 U  0.000000000000000E+000
 U  0.000000000000000E+000
 U  0.000000000000000E+000
 U  0.000000000000000E+000
 U  0.000000000000000E+000
 U  0.000000000000000E+000
 U  0.000000000000000E+000
 ***********************************
 CURRENT ELEMENT NUMBER::::         146
 NUMBER OF NODES:::           4
 DOFs:::           2
 TOTAL DOF OF ELEMENT:::            8
 ************************************
[...]
 ***********************************
 CURRENT ELEMENT NUMBER::::         174
 NUMBER OF NODES:::           4
 DOFs:::           2
 TOTAL DOF OF ELEMENT:::            8
 ************************************
         174
 AREA1   162.663594936552     
 AREA1   1.32517508747456     
 U  1.024373098637869E-003
 U -6.304960394263821E-003
 U  4.466350423799817E-004
 U -6.326043045573221E-003
 U  5.831489320213849E-004
 U -6.812720507557690E-003
 U  1.053744708592522E-003
 U -6.828566725561478E-003
 ***********************************
 CURRENT ELEMENT NUMBER::::         175
 NUMBER OF NODES:::           4
 DOFs:::           2
 TOTAL DOF OF ELEMENT:::            8
 ************************************
         175
 AREA1   131.309611295739     
 AREA1  5.826215278098346E-003
 U  4.904389537593989E-004
 U -4.277797945621189E-003
 U  4.569758295708440E-004
 U -3.774018874243680E-003
 U  5.332061149809753E-006
 U -3.866572782079393E-003
 U  2.741774466008778E-005
 U -4.383911030914407E-003
 ***********************************
 CURRENT ELEMENT NUMBER::::         176
 NUMBER OF NODES:::           4
 DOFs:::           2
 TOTAL DOF OF ELEMENT:::            8
 ************************************
         176
 AREA1   304.421746893848     
 AREA1  0.615613826343321     
 U  1.003277097660266E-003
 U -5.235548319785386E-003
 U  9.754399211652704E-004
 U -4.714742958500972E-003
 U  5.239676621905877E-004
 U -4.775704466966170E-003
 U  5.442461134001269E-004
 U -5.270669551582998E-003
 ***********************************
 CURRENT ELEMENT NUMBER::::         177
 NUMBER OF NODES:::           4
 DOFs:::           2
 TOTAL DOF OF ELEMENT:::            8
 ************************************
         177
 AREA1   184.986370767962     
 AREA1  -2.46159330854820     
 U  1.222375061163241E-004
 U -2.800733789288945E-003
 U -2.153371926513008E-005
 U -3.309070351598996E-003
 U  4.375342690695932E-004
 U -3.281317405326533E-003
 U  4.624459161369246E-004
 U -2.822421656020658E-003
 ***********************************
 CURRENT ELEMENT NUMBER::::         178
 NUMBER OF NODES:::           4
 DOFs:::           2
 TOTAL DOF OF ELEMENT:::            8
 ************************************
         178
 AREA1  -304.458266157623     
 AREA1  0.746401816273945     
 U -1.008428074171064E-003
 U -6.308753809490062E-003
 U -9.039197862692593E-004
 U -5.829771987298629E-003
 U -1.521276729967126E-003
 U -6.085448775628183E-003
 U -1.549546364398931E-003
 U -6.705389953270320E-003
 ***********************************
 CURRENT ELEMENT NUMBER::::         179
 NUMBER OF NODES:::           4
 DOFs:::           2
 TOTAL DOF OF ELEMENT:::            8
 ************************************
         179
 AREA1   128.489591246041     
 AREA1   1.91682792868807     
 U  2.741774466008778E-005
 U -4.383911030914407E-003
 U  5.527658338498197E-005
 U -4.876287483531988E-003
 U  5.239676621905877E-004
 U -4.775704466966170E-003
 U  4.904389537593989E-004
 U -4.277797945621189E-003
 ***********************************
 CURRENT ELEMENT NUMBER::::         180
 NUMBER OF NODES:::           4
 DOFs:::           2
 TOTAL DOF OF ELEMENT:::            8
 ************************************
         180
 AREA1   198.951799781074     
 AREA1  -1.49841288102020     
 U  5.297646525948633E-004
 U -5.782334495975619E-003
 U  4.466350423799817E-004
 U -6.326043045573221E-003
 U  1.024373098637869E-003
 U -6.304960394263821E-003
 U  1.016501491538123E-003
 U -5.771497074528007E-003
 ***********************************
 CURRENT ELEMENT NUMBER::::         181
 NUMBER OF NODES:::           4
 DOFs:::           2
 TOTAL DOF OF ELEMENT:::            8
 ************************************
         181
 AREA1   102.885955102405     
 AREA1  -2.65151828129169     
 U  8.445531825185541E-005
 U -5.748288016716354E-003
 U  5.297646525948633E-004
 U -5.782334495975619E-003
 U  5.442461134001269E-004
 U -5.270669551582998E-003
 U  9.141091543700115E-005
 U -5.321358242340050E-003
 ***********************************
 CURRENT ELEMENT NUMBER::::         182
 NUMBER OF NODES:::           4
 DOFs:::           2
 TOTAL DOF OF ELEMENT:::            8
 ************************************
         182
 AREA1  -99.2344335877877     
 AREA1  -8.78738930362505     
 U -4.488496401661801E-004
 U -7.282640480790159E-003
 U -4.024529755150450E-004
 U -6.923352583079895E-003
 U -9.074633425715251E-004
 U -6.892513625124503E-003
 U -9.837814977413598E-004
 U -7.434830141992853E-003
 ***********************************
 CURRENT ELEMENT NUMBER::::         183
 NUMBER OF NODES:::           4
 DOFs:::           2
 TOTAL DOF OF ELEMENT:::            8
 ************************************
         183
 AREA1  -25.4881031401846     
 AREA1  -1.17786881960358     
 U -9.610684084978779E-005
 U -7.249054224753432E-003
 U  9.728480104098110E-005
 U -6.972656668788552E-003
 U -4.024529755150450E-004
 U -6.923352583079895E-003
 U -4.488496401661801E-004
 U -7.282640480790159E-003
 ***********************************
 CURRENT ELEMENT NUMBER::::         184
 NUMBER OF NODES:::           4
 DOFs:::           2
 TOTAL DOF OF ELEMENT:::            8
 ************************************
         184
 AREA1  -62.9287469591635     
 AREA1  -4.67448099978546     
 U -2.572514567123390E-004
 U -3.063241523465354E-003
 U -2.153371926513008E-005
 U -3.309070351598996E-003
 U  1.222375061163241E-004
 U -2.800733789288945E-003
 U -1.882768887185822E-004
 U -2.733841049474733E-003
 ***********************************
 CURRENT ELEMENT NUMBER::::         185
 NUMBER OF NODES:::           4
 DOFs:::           2
 TOTAL DOF OF ELEMENT:::            8
 ************************************
         185
 AREA1  -55.6143917002240     
 AREA1  0.922530653154961     
 U -4.425720934817847E-004
 U -5.049080835429580E-003
 U -3.746083404488168E-004
 U -5.462110197791751E-003
 U  9.141091543700115E-005
 U -5.321358242340050E-003
 U  5.527658338498197E-005
 U -4.876287483531988E-003
 ***********************************
 CURRENT ELEMENT NUMBER::::         186
 NUMBER OF NODES:::           4
 DOFs:::           2
 TOTAL DOF OF ELEMENT:::            8
 ************************************
         186
 AREA1   132.396539774634     
 AREA1  -5.18645169050381     
 U  4.569758295708440E-004
 U -3.774018874243680E-003
 U  4.375342690695932E-004
 U -3.281317405326533E-003
 U -2.153371926513008E-005
 U -3.309070351598996E-003
 U  5.332061149809753E-006
 U -3.866572782079393E-003
 ***********************************
 CURRENT ELEMENT NUMBER::::         187
 NUMBER OF NODES:::           4
 DOFs:::           2
 TOTAL DOF OF ELEMENT:::            8
 ************************************
         187
 AREA1  -39.4566163310668     
 AREA1 -0.818840783288101     
 U  8.445531825185541E-005
 U -5.748288016716354E-003
 U  9.141091543700115E-005
 U -5.321358242340050E-003
 U -3.746083404488168E-004
 U -5.462110197791751E-003
 U -2.621561211643830E-004
 U -5.732723246995376E-003
 ***********************************
 CURRENT ELEMENT NUMBER::::         188
 NUMBER OF NODES:::           4
 DOFs:::           2
 TOTAL DOF OF ELEMENT:::            8
 ************************************
         188
 AREA1  -150.021888458632     
 AREA1 -0.684601355183219     
 U -9.039197862692593E-004
 U -5.829771987298629E-003
 U -4.764783497829586E-004
 U -6.042279421672487E-003
 U -2.621561211643830E-004
 U -5.732723246995376E-003
 U -3.746083404488168E-004
 U -5.462110197791751E-003
 ***********************************
 CURRENT ELEMENT NUMBER::::         189
 NUMBER OF NODES:::           4
 DOFs:::           2
 TOTAL DOF OF ELEMENT:::            8
 ************************************
         189
 AREA1  -203.923928978051     
 AREA1  -1.28334056914628     
 U -9.039197862692593E-004
 U -5.829771987298629E-003
 U -1.008428074171064E-003
 U -6.308753809490062E-003
 U -6.780096787360813E-004
 U -6.441588289005899E-003
 U -4.764783497829586E-004
 U -6.042279421672487E-003
 ***********************************
 CURRENT ELEMENT NUMBER::::         190
 NUMBER OF NODES:::           4
 DOFs:::           2
 TOTAL DOF OF ELEMENT:::            8
 ************************************
         190
 AREA1  -418.251009668091     
 AREA1 -0.701079137044786     
 U -4.686300417820073E-004
 U -4.021771626689192E-003
 U -4.963039538073383E-004
 U -3.537286755223531E-003
 U -9.274926013940641E-004
 U -3.668099835266972E-003
 U -9.420096848858423E-004
 U -4.183290330985702E-003
 ***********************************
 CURRENT ELEMENT NUMBER::::         191
 NUMBER OF NODES:::           4
 DOFs:::           2
 TOTAL DOF OF ELEMENT:::            8
 ************************************
         191
 AREA1  -640.592039459547     
 AREA1  0.592135996155918     
 U -9.420096848858423E-004
 U -4.183290330985702E-003
 U -9.274926013940641E-004
 U -3.668099835266972E-003
 U -1.330178698480262E-003
 U -3.760826328498301E-003
 U -1.389623623937337E-003
 U -4.312060891548443E-003
 ***********************************
 CURRENT ELEMENT NUMBER::::         192
 NUMBER OF NODES:::           4
 DOFs:::           2
 TOTAL DOF OF ELEMENT:::            8
 ************************************
         192
 AREA1  -469.890682505543     
 AREA1   1.55669549351393     
 U -9.510853928881142E-004
 U -5.273458287346117E-003
 U -9.549069790682217E-004
 U -4.722272346529731E-003
 U -1.441427664298291E-003
 U -4.885153717176709E-003
 U -1.485263568463138E-003
 U -5.477247093484215E-003
 ***********************************
 CURRENT ELEMENT NUMBER::::         193
 NUMBER OF NODES:::           4
 DOFs:::           2
 TOTAL DOF OF ELEMENT:::            8
 ************************************
         193
 AREA1  -82.4799357010405     
 AREA1  -2.65814357369212     
 U -4.764783497829586E-004
 U -6.042279421672487E-003
 U -6.780096787360813E-004
 U -6.441588289005899E-003
 U -2.634736997345721E-004
 U -6.530820263242585E-003
 U -5.444156792825595E-005
 U -6.150211442747204E-003
 ***********************************
 CURRENT ELEMENT NUMBER::::         194
 NUMBER OF NODES:::           4
 DOFs:::           2
 TOTAL DOF OF ELEMENT:::            8
 ************************************
         194
 AREA1  -231.445526375507     
 AREA1  0.476873477652077     
 U -3.746083404488168E-004
 U -5.462110197791751E-003
 U -4.425720934817847E-004
 U -5.049080835429580E-003
 U -9.510853928881142E-004
 U -5.273458287346117E-003
 U -9.039197862692593E-004
 U -5.829771987298629E-003
 ***********************************
 CURRENT ELEMENT NUMBER::::         195
 NUMBER OF NODES:::           4
 DOFs:::           2
 TOTAL DOF OF ELEMENT:::            8
 ************************************
         195
 AREA1  -381.227568134569     
 AREA1 -0.606838212123904     
 U -9.039197862692593E-004
 U -5.829771987298629E-003
 U -9.510853928881142E-004
 U -5.273458287346117E-003
 U -1.485263568463138E-003
 U -5.477247093484215E-003
 U -1.521276729967126E-003
 U -6.085448775628183E-003
 ***********************************
 CURRENT ELEMENT NUMBER::::         196
 NUMBER OF NODES:::           4
 DOFs:::           2
 TOTAL DOF OF ELEMENT:::            8
 ************************************
         196
 AREA1  -196.015179891679     
 AREA1  -7.34708667420450     
 U -9.074633425715251E-004
 U -6.892513625124503E-003
 U -1.549546364398931E-003
 U -6.705389953270320E-003
 U -1.570212073040943E-003
 U -7.336273350721170E-003
 U -9.837814977413598E-004
 U -7.434830141992853E-003
 ***********************************
 CURRENT ELEMENT NUMBER::::         197
 NUMBER OF NODES:::           4
 DOFs:::           2
 TOTAL DOF OF ELEMENT:::            8
 ************************************
         197
 AREA1  -290.719295609444     
 AREA1 -0.318674445017550     
 U -4.425720934817847E-004
 U -5.049080835429580E-003
 U -4.586612009929259E-004
 U -4.539137934699844E-003
 U -9.549069790682217E-004
 U -4.722272346529731E-003
 U -9.510853928881142E-004
 U -5.273458287346117E-003
 ***********************************
 CURRENT ELEMENT NUMBER::::         198
 NUMBER OF NODES:::           4
 DOFs:::           2
 TOTAL DOF OF ELEMENT:::            8
 ************************************
         198
 AREA1  -556.574871920009     
 AREA1   1.24599396140377     
 U -9.549069790682217E-004
 U -4.722272346529731E-003
 U -9.420096848858423E-004
 U -4.183290330985702E-003
 U -1.389623623937337E-003
 U -4.312060891548443E-003
 U -1.441427664298291E-003
 U -4.885153717176709E-003
 ***********************************
 CURRENT ELEMENT NUMBER::::         199
 NUMBER OF NODES:::           4
 DOFs:::           2
 TOTAL DOF OF ELEMENT:::            8
 ************************************
         199
 AREA1   15.9399338392115     
 AREA1   1.94580047109318     
 U -5.444156792825595E-005
 U -6.150211442747204E-003
 U -2.634736997345721E-004
 U -6.530820263242585E-003
 U  8.269682857552215E-005
 U -6.627890626303633E-003
 U  4.466350423799817E-004
 U -6.326043045573221E-003
 ***********************************
 CURRENT ELEMENT NUMBER::::         200
 NUMBER OF NODES:::           4
 DOFs:::           2
 TOTAL DOF OF ELEMENT:::            8
 ************************************
         200
 AREA1  -26.9473978699080     
 AREA1  -3.02138047658716     
 U -9.610684084978779E-005
 U -7.249054224753432E-003
 U -4.488496401661801E-004
 U -7.282640480790159E-003
 U -3.328232310399920E-004
 U -7.589334402119643E-003
 U  2.007697958925092E-005
 U -7.476790099202706E-003
 ***********************************
 CURRENT ELEMENT NUMBER::::         201
 NUMBER OF NODES:::           4
 DOFs:::           2
 TOTAL DOF OF ELEMENT:::            8
 ************************************
         201
 AREA1  -1285.62443096382     
 AREA1   16.4081544989743     
 U -1.411469547196917E-004
 U -1.098218246282562E-004
 U -1.177585271936193E-004
 U -6.224961511059505E-005
 U -1.781763549239862E-004
 U -9.491999626111927E-005
 U -2.433805245070038E-004
 U -1.785706339082156E-004
 ***********************************
 CURRENT ELEMENT NUMBER::::         202
 NUMBER OF NODES:::           4
 DOFs:::           2
 TOTAL DOF OF ELEMENT:::            8
 ************************************
         202
 AREA1  -358.977271238312     
 AREA1  -60.4864543819933     
 U -1.360356500487831E-005
 U -2.461677051052928E-005
 U -8.329836377203068E-006
 U -5.264359566805872E-006
 U -1.735072804938856E-005
 U -5.926470469608266E-006
 U -3.751669083622142E-005
 U -3.118485539617782E-005
 ***********************************
 CURRENT ELEMENT NUMBER::::         203
 NUMBER OF NODES:::           4
 DOFs:::           2
 TOTAL DOF OF ELEMENT:::            8
 ************************************
         203
 AREA1  -54.2580492699910     
 AREA1  -8.51207605743217     
 U -9.837814977413598E-004
 U -7.434830141992853E-003
 U -6.857947451514954E-004
 U -7.779729781822189E-003
 U -3.328232310399920E-004
 U -7.589334402119643E-003
 U -4.488496401661801E-004
 U -7.282640480790159E-003
 ***********************************
 CURRENT ELEMENT NUMBER::::         204
 NUMBER OF NODES:::           4
 DOFs:::           2
 TOTAL DOF OF ELEMENT:::            8
 ************************************
         204
 AREA1   71.4473891356945     
 AREA1   8.72487120800513     
 U  6.291367108916446E-004
 U -7.155038019563050E-003
 U  3.324767911860500E-004
 U -7.310303036490772E-003
 U  5.321439782008504E-004
 U -7.613577664345807E-003
 U  9.963981770255252E-004
 U -7.383743507691381E-003
 ***********************************
 CURRENT ELEMENT NUMBER::::         205
 NUMBER OF NODES:::           4
 DOFs:::           2
 TOTAL DOF OF ELEMENT:::            8
 ************************************
         205
 AREA1  -279.034728318807     
 AREA1  -49.3563204739990     
 U -1.360356500487831E-005
 U -2.461677051052928E-005
 U -3.751669083622142E-005
 U -3.118485539617782E-005
 U -3.757207016687222E-005
 U -6.052864322972731E-005
 U -8.243256289981215E-006
 U -5.779277685799051E-005
 ***********************************
 CURRENT ELEMENT NUMBER::::         206
 NUMBER OF NODES:::           4
 DOFs:::           2
 TOTAL DOF OF ELEMENT:::            8
 ************************************
         206
 AREA1  -813.637069308928     
 AREA1  -24.2699765633913     
 U -6.843272208714036E-005
 U -9.951277173550886E-005
 U -8.226060912836362E-005
 U -6.660953599269689E-005
 U -1.411469547196917E-004
 U -1.098218246282562E-004
 U -1.304838037469170E-004
 U -1.533626445514169E-004
 ***********************************
 CURRENT ELEMENT NUMBER::::         207
 NUMBER OF NODES:::           4
 DOFs:::           2
 TOTAL DOF OF ELEMENT:::            8
 ************************************
         207
 AREA1  -557.010285890734     
 AREA1  -19.5895177731375     
 U -6.843272208714036E-005
 U -9.951277173550886E-005
 U -3.757207016687222E-005
 U -6.052864322972731E-005
 U -3.751669083622142E-005
 U -3.118485539617782E-005
 U -8.226060912836362E-005
 U -6.660953599269689E-005
 ***********************************
 CURRENT ELEMENT NUMBER::::         208
 NUMBER OF NODES:::           4
 DOFs:::           2
 TOTAL DOF OF ELEMENT:::            8
 ************************************
         208
 AREA1  -524.619013172123     
 AREA1  -5.27928777924870     
 U -2.543710860892168E-004
 U -4.164023873032531E-004
 U -2.340687854862263E-004
 U -5.956661046862648E-004
 U -5.635174923146961E-005
 U -4.327889841948421E-004
 U -1.379218735735391E-004
 U -3.644375639373205E-004

               CONVERGENCE CHECKS FOR EQUILIBRIUM ITERATION     1


 AVERAGE FORCE                       227.       TIME AVG. FORCE        227.    
 LARGEST RESIDUAL FORCE             1.928E-10   AT NODE        216   DOF  2
 LARGEST INCREMENT OF DISP.        -8.625E-03   AT NODE         35   DOF  2
 LARGEST CORRECTION TO DISP.       -8.625E-03   AT NODE         35   DOF  2
          THE FORCE     EQUILIBRIUM RESPONSE WAS LINEAR IN THIS INCREMENT

 ITERATION SUMMARY FOR THE INCREMENT:   1 TOTAL ITERATIONS, OF WHICH
   0 ARE SEVERE DISCONTINUITY ITERATIONS AND  1 ARE EQUILIBRIUM ITERATIONS.

 TIME INCREMENT COMPLETED   1.00    ,  FRACTION OF STEP COMPLETED   1.00    
 STEP TIME COMPLETED        1.00    ,  TOTAL TIME COMPLETED         1.00    


          THE ANALYSIS HAS BEEN COMPLETED



     ANALYSIS SUMMARY:
     TOTAL OF          1  INCREMENTS
                       0  CUTBACKS IN AUTOMATIC INCREMENTATION
                       1  ITERATIONS INCLUDING CONTACT ITERATIONS IF PRESENT
                       1  PASSES THROUGH THE EQUATION SOLVER OF WHICH 
                       1  INVOLVE MATRIX DECOMPOSITION, INCLUDING
                       0  DECOMPOSITION(S) OF THE MASS MATRIX
                       1  REORDERING OF EQUATIONS TO MINIMIZE WAVEFRONT
                       0  ADDITIONAL RESIDUAL EVALUATIONS FOR LINE SEARCHES
                       0  ADDITIONAL OPERATOR EVALUATIONS FOR LINE SEARCHES
                       1  WARNING MESSAGES DURING USER INPUT PROCESSING
                       0  WARNING MESSAGES DURING ANALYSIS
                       0  ANALYSIS WARNINGS ARE NUMERICAL PROBLEM MESSAGES
                       0  ANALYSIS WARNINGS ARE NEGATIVE EIGENVALUE MESSAGES
                       0  ERROR MESSAGES



     JOB TIME SUMMARY
       USER TIME (SEC)      =  0.20000    
       SYSTEM TIME (SEC)    =  0.20000    
       TOTAL CPU TIME (SEC) =  0.40000    
       WALLCLOCK TIME (SEC) =          1
