1

   Abaqus 3DEXPERIENCE R2018x                                  Date 11-May-2020   Time 14:17:05
   For use by Supplied by Team-SolidSQUAD under license from Dassault Systemes or its subsidiary.



                         The Abaqus Software is a product of:

                           Dassault Systemes SIMULIA Corp.
                           1301 Atwood Avenue, Suite 101W
                              Johnston, RI 02919, USA
 


                   The Abaqus Software is available only under license
                   from Dassault Systemes or its subsidiary and may be
                   used or reproduced only in accordance with the terms
                   of such license.
 
                          On machine DESKTOP-NVH18H4 
                          you are authorized to run
                          Abaqus/Standard until 31-Dec-2055

                          Your site id is:  


 
                    For assistance or any other information you may
                    obtain contact information for your local office
                    from the world wide web at:

                      http://www.3ds.com/products/simulia/locations/

 
                * * * * * * * * * * * * * * * * * * * * * * * * * * * * * * 
                *                                                         * 
                *                   *****************                     * 
                *                   *  N O T I C E  *                     * 
                *                   *****************                     * 
                *                                                         * 
                *                                                         * 
                *               Abaqus 3DEXPERIENCE R2018x                * 
                *                                                         * 
                *          BUILD ID: 2017_11_07-22.51.41 127140           * 
                *                                                         * 
                *                                                         * 
                *  Please make sure you are using                         * 
                *  release 3DEXPERIENCE R2018x manuals                    * 
                *  plus the notes accompanying this release.              * 
                *                                                         * 
                *                                                         * 
                *                                                         * 
                *                                                         * 
                * * * * * * * * * * * * * * * * * * * * * * * * * * * * * * 


 



     PROCESSING PART, INSTANCE, AND ASSEMBLY INFORMATION
   *******************************************************


     END PROCESSING PART, INSTANCE, AND ASSEMBLY INFORMATION
   ***********************************************************

1

   Abaqus 3DEXPERIENCE R2018x                                  Date 11-May-2020   Time 14:17:05
   For use by Supplied by Team-SolidSQUAD under license from Dassault Systemes or its subsidiary.

                                                                                     

                                             A B A Q U S   I N P U T   E C H O


                    *HEADING
                    Plane Stress Linear Static analysis of Beam under Parabolic Loading     
                    *PREPRINT, ECHO=YES, HISTORY=NO, MODEL=NO       
                    *NODE   
     LINE     5       1,0.0,-6.0    
                      2,1.0,-6.0    
                      3,2.0,-6.0    
                      4,3.0,-6.0    
                      5,4.0,-6.0    
     LINE    10       6,5.0,-6.0    
                      7,6.0,-6.0    
                      8,7.0,-6.0    
                      9,8.0,-6.0    
                      10,9.0,-6.0   
     LINE    15       11,10.0,-6.0  
                      12,11.0,-6.0  
                      13,12.0,-6.0  
                      14,13.0,-6.0  
                      15,14.0,-6.0  
     LINE    20       16,15.0,-6.0  
                      17,16.0,-6.0  
                      18,17.0,-6.0  
                      19,18.0,-6.0  
                      20,19.0,-6.0  
     LINE    25       21,20.0,-6.0  
                      22,21.0,-6.0  
                      23,22.0,-6.0  
                      24,23.0,-6.0  
                      25,24.0,-6.0  
     LINE    30       26,25.0,-6.0  
                      27,26.0,-6.0  
                      28,27.0,-6.0  
                      29,28.0,-6.0  
                      30,29.0,-6.0  
     LINE    35       31,30.0,-6.0  
                      32,31.0,-6.0  
                      33,32.0,-6.0  
                      34,33.0,-6.0  
                      35,34.0,-6.0  
     LINE    40       36,35.0,-6.0  
                      37,36.0,-6.0  
                      38,37.0,-6.0  
                      39,38.0,-6.0  
                      40,39.0,-6.0  
     LINE    45       41,40.0,-6.0  
                      42,41.0,-6.0  
                      43,42.0,-6.0  
                      44,43.0,-6.0  
                      45,44.0,-6.0  
     LINE    50       46,45.0,-6.0  
                      47,46.0,-6.0  
                      48,47.0,-6.0  
                      49,48.0,-6.0  
                      50,0.0,-5.0   
     LINE    55       51,1.0,-5.0   
                      52,2.0,-5.0   
                      53,3.0,-5.0   
                      54,4.0,-5.0   
                      55,5.0,-5.0   
     LINE    60       56,6.0,-5.0   
                      57,7.0,-5.0   
                      58,8.0,-5.0   
                      59,9.0,-5.0   
                      60,10.0,-5.0  
     LINE    65       61,11.0,-5.0  
                      62,12.0,-5.0  
                      63,13.0,-5.0  
                      64,14.0,-5.0  
                      65,15.0,-5.0  
     LINE    70       66,16.0,-5.0  
                      67,17.0,-5.0  
                      68,18.0,-5.0  
                      69,19.0,-5.0  
                      70,20.0,-5.0  
     LINE    75       71,21.0,-5.0  
                      72,22.0,-5.0  
                      73,23.0,-5.0  
                      74,24.0,-5.0  
                      75,25.0,-5.0  
     LINE    80       76,26.0,-5.0  
                      77,27.0,-5.0  
                      78,28.0,-5.0  
                      79,29.0,-5.0  
                      80,30.0,-5.0  
     LINE    85       81,31.0,-5.0  
                      82,32.0,-5.0  
                      83,33.0,-5.0  
                      84,34.0,-5.0  
                      85,35.0,-5.0  
     LINE    90       86,36.0,-5.0  
                      87,37.0,-5.0  
                      88,38.0,-5.0  
                      89,39.0,-5.0  
                      90,40.0,-5.0  
     LINE    95       91,41.0,-5.0  
                      92,42.0,-5.0  
                      93,43.0,-5.0  
                      94,44.0,-5.0  
                      95,45.0,-5.0  
     LINE   100       96,46.0,-5.0  
                      97,47.0,-5.0  
                      98,48.0,-5.0  
                      99,0.0,-4.0   
                      100,1.0,-4.0  
     LINE   105       101,2.0,-4.0  
                      102,3.0,-4.0  
                      103,4.0,-4.0  
                      104,5.0,-4.0  
                      105,6.0,-4.0  
     LINE   110       106,7.0,-4.0  
                      107,8.0,-4.0  
                      108,9.0,-4.0  
                      109,10.0,-4.0 
                      110,11.0,-4.0 
     LINE   115       111,12.0,-4.0 
                      112,13.0,-4.0 
                      113,14.0,-4.0 
                      114,15.0,-4.0 
                      115,16.0,-4.0 
     LINE   120       116,17.0,-4.0 
                      117,18.0,-4.0 
                      118,19.0,-4.0 
                      119,20.0,-4.0 
                      120,21.0,-4.0 
     LINE   125       121,22.0,-4.0 
                      122,23.0,-4.0 
                      123,24.0,-4.0 
                      124,25.0,-4.0 
                      125,26.0,-4.0 
     LINE   130       126,27.0,-4.0 
                      127,28.0,-4.0 
                      128,29.0,-4.0 
                      129,30.0,-4.0 
                      130,31.0,-4.0 
     LINE   135       131,32.0,-4.0 
                      132,33.0,-4.0 
                      133,34.0,-4.0 
                      134,35.0,-4.0 
                      135,36.0,-4.0 
     LINE   140       136,37.0,-4.0 
                      137,38.0,-4.0 
                      138,39.0,-4.0 
                      139,40.0,-4.0 
                      140,41.0,-4.0 
     LINE   145       141,42.0,-4.0 
                      142,43.0,-4.0 
                      143,44.0,-4.0 
                      144,45.0,-4.0 
                      145,46.0,-4.0 
     LINE   150       146,47.0,-4.0 
                      147,48.0,-4.0 
                      148,0.0,-3.0  
                      149,1.0,-3.0  
                      150,2.0,-3.0  
     LINE   155       151,3.0,-3.0  
                      152,4.0,-3.0  
                      153,5.0,-3.0  
                      154,6.0,-3.0  
                      155,7.0,-3.0  
     LINE   160       156,8.0,-3.0  
                      157,9.0,-3.0  
                      158,10.0,-3.0 
                      159,11.0,-3.0 
                      160,12.0,-3.0 
     LINE   165       161,13.0,-3.0 
                      162,14.0,-3.0 
                      163,15.0,-3.0 
                      164,16.0,-3.0 
                      165,17.0,-3.0 
     LINE   170       166,18.0,-3.0 
                      167,19.0,-3.0 
                      168,20.0,-3.0 
                      169,21.0,-3.0 
                      170,22.0,-3.0 
     LINE   175       171,23.0,-3.0 
                      172,24.0,-3.0 
                      173,25.0,-3.0 
                      174,26.0,-3.0 
                      175,27.0,-3.0 
     LINE   180       176,28.0,-3.0 
                      177,29.0,-3.0 
                      178,30.0,-3.0 
                      179,31.0,-3.0 
                      180,32.0,-3.0 
     LINE   185       181,33.0,-3.0 
                      182,34.0,-3.0 
                      183,35.0,-3.0 
                      184,36.0,-3.0 
                      185,37.0,-3.0 
     LINE   190       186,38.0,-3.0 
                      187,39.0,-3.0 
                      188,40.0,-3.0 
                      189,41.0,-3.0 
                      190,42.0,-3.0 
     LINE   195       191,43.0,-3.0 
                      192,44.0,-3.0 
                      193,45.0,-3.0 
                      194,46.0,-3.0 
                      195,47.0,-3.0 
     LINE   200       196,48.0,-3.0 
                      197,0.0,-2.0  
                      198,1.0,-2.0  
                      199,2.0,-2.0  
                      200,3.0,-2.0  
     LINE   205       201,4.0,-2.0  
                      202,5.0,-2.0  
                      203,6.0,-2.0  
                      204,7.0,-2.0  
                      205,8.0,-2.0  
     LINE   210       206,9.0,-2.0  
                      207,10.0,-2.0 
                      208,11.0,-2.0 
                      209,12.0,-2.0 
                      210,13.0,-2.0 
     LINE   215       211,14.0,-2.0 
                      212,15.0,-2.0 
                      213,16.0,-2.0 
                      214,17.0,-2.0 
                      215,18.0,-2.0 
     LINE   220       216,19.0,-2.0 
                      217,20.0,-2.0 
                      218,21.0,-2.0 
                      219,22.0,-2.0 
                      220,23.0,-2.0 
     LINE   225       221,24.0,-2.0 
                      222,25.0,-2.0 
                      223,26.0,-2.0 
                      224,27.0,-2.0 
                      225,28.0,-2.0 
     LINE   230       226,29.0,-2.0 
                      227,30.0,-2.0 
                      228,31.0,-2.0 
                      229,32.0,-2.0 
                      230,33.0,-2.0 
     LINE   235       231,34.0,-2.0 
                      232,35.0,-2.0 
                      233,36.0,-2.0 
                      234,37.0,-2.0 
                      235,38.0,-2.0 
     LINE   240       236,39.0,-2.0 
                      237,40.0,-2.0 
                      238,41.0,-2.0 
                      239,42.0,-2.0 
                      240,43.0,-2.0 
     LINE   245       241,44.0,-2.0 
                      242,45.0,-2.0 
                      243,46.0,-2.0 
                      244,47.0,-2.0 
                      245,48.0,-2.0 
     LINE   250       246,0.0,-1.0  
                      247,1.0,-1.0  
                      248,2.0,-1.0  
                      249,3.0,-1.0  
                      250,4.0,-1.0  
     LINE   255       251,5.0,-1.0  
                      252,6.0,-1.0  
                      253,7.0,-1.0  
                      254,8.0,-1.0  
                      255,9.0,-1.0  
     LINE   260       256,10.0,-1.0 
                      257,11.0,-1.0 
                      258,12.0,-1.0 
                      259,13.0,-1.0 
                      260,14.0,-1.0 
     LINE   265       261,15.0,-1.0 
                      262,16.0,-1.0 
                      263,17.0,-1.0 
                      264,18.0,-1.0 
                      265,19.0,-1.0 
     LINE   270       266,20.0,-1.0 
                      267,21.0,-1.0 
                      268,22.0,-1.0 
                      269,23.0,-1.0 
                      270,24.0,-1.0 
     LINE   275       271,25.0,-1.0 
                      272,26.0,-1.0 
                      273,27.0,-1.0 
                      274,28.0,-1.0 
                      275,29.0,-1.0 
     LINE   280       276,30.0,-1.0 
                      277,31.0,-1.0 
                      278,32.0,-1.0 
                      279,33.0,-1.0 
                      280,34.0,-1.0 
     LINE   285       281,35.0,-1.0 
                      282,36.0,-1.0 
                      283,37.0,-1.0 
                      284,38.0,-1.0 
                      285,39.0,-1.0 
     LINE   290       286,40.0,-1.0 
                      287,41.0,-1.0 
                      288,42.0,-1.0 
                      289,43.0,-1.0 
                      290,44.0,-1.0 
     LINE   295       291,45.0,-1.0 
                      292,46.0,-1.0 
                      293,47.0,-1.0 
                      294,48.0,-1.0 
                      295,0.0,0.0   
     LINE   300       296,1.0,0.0   
                      297,2.0,0.0   
                      298,3.0,0.0   
                      299,4.0,0.0   
                      300,5.0,0.0   
     LINE   305       301,6.0,0.0   
                      302,7.0,0.0   
                      303,8.0,0.0   
                      304,9.0,0.0   
                      305,10.0,0.0  
     LINE   310       306,11.0,0.0  
                      307,12.0,0.0  
                      308,13.0,0.0  
                      309,14.0,0.0  
                      310,15.0,0.0  
     LINE   315       311,16.0,0.0  
                      312,17.0,0.0  
                      313,18.0,0.0  
                      314,19.0,0.0  
                      315,20.0,0.0  
     LINE   320       316,21.0,0.0  
                      317,22.0,0.0  
                      318,23.0,0.0  
                      319,24.0,0.0  
                      320,25.0,0.0  
     LINE   325       321,26.0,0.0  
                      322,27.0,0.0  
                      323,28.0,0.0  
                      324,29.0,0.0  
                      325,30.0,0.0  
     LINE   330       326,31.0,0.0  
                      327,32.0,0.0  
                      328,33.0,0.0  
                      329,34.0,0.0  
                      330,35.0,0.0  
     LINE   335       331,36.0,0.0  
                      332,37.0,0.0  
                      333,38.0,0.0  
                      334,39.0,0.0  
                      335,40.0,0.0  
     LINE   340       336,41.0,0.0  
                      337,42.0,0.0  
                      338,43.0,0.0  
                      339,44.0,0.0  
                      340,45.0,0.0  
     LINE   345       341,46.0,0.0  
                      342,47.0,0.0  
                      343,48.0,0.0  
                      344,0.0,1.0   
                      345,1.0,1.0   
     LINE   350       346,2.0,1.0   
                      347,3.0,1.0   
                      348,4.0,1.0   
                      349,5.0,1.0   
                      350,6.0,1.0   
     LINE   355       351,7.0,1.0   
                      352,8.0,1.0   
                      353,9.0,1.0   
                      354,10.0,1.0  
                      355,11.0,1.0  
     LINE   360       356,12.0,1.0  
                      357,13.0,1.0  
                      358,14.0,1.0  
                      359,15.0,1.0  
                      360,16.0,1.0  
     LINE   365       361,17.0,1.0  
                      362,18.0,1.0  
                      363,19.0,1.0  
                      364,20.0,1.0  
                      365,21.0,1.0  
     LINE   370       366,22.0,1.0  
                      367,23.0,1.0  
                      368,24.0,1.0  
                      369,25.0,1.0  
                      370,26.0,1.0  
     LINE   375       371,27.0,1.0  
                      372,28.0,1.0  
                      373,29.0,1.0  
                      374,30.0,1.0  
                      375,31.0,1.0  
     LINE   380       376,32.0,1.0  
                      377,33.0,1.0  
                      378,34.0,1.0  
                      379,35.0,1.0  
                      380,36.0,1.0  
     LINE   385       381,37.0,1.0  
                      382,38.0,1.0  
                      383,39.0,1.0  
                      384,40.0,1.0  
                      385,41.0,1.0  
     LINE   390       386,42.0,1.0  
                      387,43.0,1.0  
                      388,44.0,1.0  
                      389,45.0,1.0  
                      390,46.0,1.0  
     LINE   395       391,47.0,1.0  
                      392,48.0,1.0  
                      393,0.0,2.0   
                      394,1.0,2.0   
                      395,2.0,2.0   
     LINE   400       396,3.0,2.0   
                      397,4.0,2.0   
                      398,5.0,2.0   
                      399,6.0,2.0   
                      400,7.0,2.0   
     LINE   405       401,8.0,2.0   
                      402,9.0,2.0   
                      403,10.0,2.0  
                      404,11.0,2.0  
                      405,12.0,2.0  
     LINE   410       406,13.0,2.0  
                      407,14.0,2.0  
                      408,15.0,2.0  
                      409,16.0,2.0  
                      410,17.0,2.0  
     LINE   415       411,18.0,2.0  
                      412,19.0,2.0  
                      413,20.0,2.0  
                      414,21.0,2.0  
                      415,22.0,2.0  
     LINE   420       416,23.0,2.0  
                      417,24.0,2.0  
                      418,25.0,2.0  
                      419,26.0,2.0  
                      420,27.0,2.0  
     LINE   425       421,28.0,2.0  
                      422,29.0,2.0  
                      423,30.0,2.0  
                      424,31.0,2.0  
                      425,32.0,2.0  
     LINE   430       426,33.0,2.0  
                      427,34.0,2.0  
                      428,35.0,2.0  
                      429,36.0,2.0  
                      430,37.0,2.0  
     LINE   435       431,38.0,2.0  
                      432,39.0,2.0  
                      433,40.0,2.0  
                      434,41.0,2.0  
                      435,42.0,2.0  
     LINE   440       436,43.0,2.0  
                      437,44.0,2.0  
                      438,45.0,2.0  
                      439,46.0,2.0  
                      440,47.0,2.0  
     LINE   445       441,48.0,2.0  
                      442,0.0,3.0   
                      443,1.0,3.0   
                      444,2.0,3.0   
                      445,3.0,3.0   
     LINE   450       446,4.0,3.0   
                      447,5.0,3.0   
                      448,6.0,3.0   
                      449,7.0,3.0   
                      450,8.0,3.0   
     LINE   455       451,9.0,3.0   
                      452,10.0,3.0  
                      453,11.0,3.0  
                      454,12.0,3.0  
                      455,13.0,3.0  
     LINE   460       456,14.0,3.0  
                      457,15.0,3.0  
                      458,16.0,3.0  
                      459,17.0,3.0  
                      460,18.0,3.0  
     LINE   465       461,19.0,3.0  
                      462,20.0,3.0  
                      463,21.0,3.0  
                      464,22.0,3.0  
                      465,23.0,3.0  
     LINE   470       466,24.0,3.0  
                      467,25.0,3.0  
                      468,26.0,3.0  
                      469,27.0,3.0  
                      470,28.0,3.0  
     LINE   475       471,29.0,3.0  
                      472,30.0,3.0  
                      473,31.0,3.0  
                      474,32.0,3.0  
                      475,33.0,3.0  
     LINE   480       476,34.0,3.0  
                      477,35.0,3.0  
                      478,36.0,3.0  
                      479,37.0,3.0  
                      480,38.0,3.0  
     LINE   485       481,39.0,3.0  
                      482,40.0,3.0  
                      483,41.0,3.0  
                      484,42.0,3.0  
                      485,43.0,3.0  
     LINE   490       486,44.0,3.0  
                      487,45.0,3.0  
                      488,46.0,3.0  
                      489,47.0,3.0  
                      490,48.0,3.0  
     LINE   495       491,0.0,4.0   
                      492,1.0,4.0   
                      493,2.0,4.0   
                      494,3.0,4.0   
                      495,4.0,4.0   
     LINE   500       496,5.0,4.0   
                      497,6.0,4.0   
                      498,7.0,4.0   
                      499,8.0,4.0   
                      500,9.0,4.0   
     LINE   505       501,10.0,4.0  
                      502,11.0,4.0  
                      503,12.0,4.0  
                      504,13.0,4.0  
                      505,14.0,4.0  
     LINE   510       506,15.0,4.0  
                      507,16.0,4.0  
                      508,17.0,4.0  
                      509,18.0,4.0  
                      510,19.0,4.0  
     LINE   515       511,20.0,4.0  
                      512,21.0,4.0  
                      513,22.0,4.0  
                      514,23.0,4.0  
                      515,24.0,4.0  
     LINE   520       516,25.0,4.0  
                      517,26.0,4.0  
                      518,27.0,4.0  
                      519,28.0,4.0  
                      520,29.0,4.0  
     LINE   525       521,30.0,4.0  
                      522,31.0,4.0  
                      523,32.0,4.0  
                      524,33.0,4.0  
                      525,34.0,4.0  
     LINE   530       526,35.0,4.0  
                      527,36.0,4.0  
                      528,37.0,4.0  
                      529,38.0,4.0  
                      530,39.0,4.0  
     LINE   535       531,40.0,4.0  
                      532,41.0,4.0  
                      533,42.0,4.0  
                      534,43.0,4.0  
                      535,44.0,4.0  
     LINE   540       536,45.0,4.0  
                      537,46.0,4.0  
                      538,47.0,4.0  
                      539,48.0,4.0  
                      540,0.0,5.0   
     LINE   545       541,1.0,5.0   
                      542,2.0,5.0   
                      543,3.0,5.0   
                      544,4.0,5.0   
                      545,5.0,5.0   
     LINE   550       546,6.0,5.0   
                      547,7.0,5.0   
                      548,8.0,5.0   
                      549,9.0,5.0   
                      550,10.0,5.0  
     LINE   555       551,11.0,5.0  
                      552,12.0,5.0  
                      553,13.0,5.0  
                      554,14.0,5.0  
                      555,15.0,5.0  
     LINE   560       556,16.0,5.0  
                      557,17.0,5.0  
                      558,18.0,5.0  
                      559,19.0,5.0  
                      560,20.0,5.0  
     LINE   565       561,21.0,5.0  
                      562,22.0,5.0  
                      563,23.0,5.0  
                      564,24.0,5.0  
                      565,25.0,5.0  
     LINE   570       566,26.0,5.0  
                      567,27.0,5.0  
                      568,28.0,5.0  
                      569,29.0,5.0  
                      570,30.0,5.0  
     LINE   575       571,31.0,5.0  
                      572,32.0,5.0  
                      573,33.0,5.0  
                      574,34.0,5.0  
                      575,35.0,5.0  
     LINE   580       576,36.0,5.0  
                      577,37.0,5.0  
                      578,38.0,5.0  
                      579,39.0,5.0  
                      580,40.0,5.0  
     LINE   585       581,41.0,5.0  
                      582,42.0,5.0  
                      583,43.0,5.0  
                      584,44.0,5.0  
                      585,45.0,5.0  
     LINE   590       586,46.0,5.0  
                      587,47.0,5.0  
                      588,48.0,5.0  
                      589,0.0,6.0   
                      590,1.0,6.0   
     LINE   595       591,2.0,6.0   
                      592,3.0,6.0   
                      593,4.0,6.0   
                      594,5.0,6.0   
                      595,6.0,6.0   
     LINE   600       596,7.0,6.0   
                      597,8.0,6.0   
                      598,9.0,6.0   
                      599,10.0,6.0  
                      600,11.0,6.0  
     LINE   605       601,12.0,6.0  
                      602,13.0,6.0  
                      603,14.0,6.0  
                      604,15.0,6.0  
                      605,16.0,6.0  
     LINE   610       606,17.0,6.0  
                      607,18.0,6.0  
                      608,19.0,6.0  
                      609,20.0,6.0  
                      610,21.0,6.0  
     LINE   615       611,22.0,6.0  
                      612,23.0,6.0  
                      613,24.0,6.0  
                      614,25.0,6.0  
                      615,26.0,6.0  
     LINE   620       616,27.0,6.0  
                      617,28.0,6.0  
                      618,29.0,6.0  
                      619,30.0,6.0  
                      620,31.0,6.0  
     LINE   625       621,32.0,6.0  
                      622,33.0,6.0  
                      623,34.0,6.0  
                      624,35.0,6.0  
                      625,36.0,6.0  
     LINE   630       626,37.0,6.0  
                      627,38.0,6.0  
                      628,39.0,6.0  
                      629,40.0,6.0  
                      630,41.0,6.0  
     LINE   635       631,42.0,6.0  
                      632,43.0,6.0  
                      633,44.0,6.0  
                      634,45.0,6.0  
                      635,46.0,6.0  
     LINE   640       636,47.0,6.0  
                      637,48.0,6.0  
                    *USER ELEMENT, NODES=4, TYPE=U1, COORDINATES=2, PROPERTIES=2, VARIABLES=8       
                      1, 2  
                    *ELEMENT, TYPE=U1, ELSET=EALL   
     LINE   645       1,1,2,51,50   
                      2,2,3,52,51   
                      3,3,4,53,52   
                      4,4,5,54,53   
                      5,5,6,55,54   
     LINE   650       6,6,7,56,55   
                      7,7,8,57,56   
                      8,8,9,58,57   
                      9,9,10,59,58  
                      10,10,11,60,59
     LINE   655       11,11,12,61,60
                      12,12,13,62,61
                      13,13,14,63,62
                      14,14,15,64,63
                      15,15,16,65,64
     LINE   660       16,16,17,66,65
                      17,17,18,67,66
                      18,18,19,68,67
                      19,19,20,69,68
                      20,20,21,70,69
     LINE   665       21,21,22,71,70
                      22,22,23,72,71
                      23,23,24,73,72
                      24,24,25,74,73
                      25,25,26,75,74
     LINE   670       26,26,27,76,75
                      27,27,28,77,76
                      28,28,29,78,77
                      29,29,30,79,78
                      30,30,31,80,79
     LINE   675       31,31,32,81,80
                      32,32,33,82,81
                      33,33,34,83,82
                      34,34,35,84,83
                      35,35,36,85,84
     LINE   680       36,36,37,86,85
                      37,37,38,87,86
                      38,38,39,88,87
                      39,39,40,89,88
                      40,40,41,90,89
     LINE   685       41,41,42,91,90
                      42,42,43,92,91
                      43,43,44,93,92
                      44,44,45,94,93
                      45,45,46,95,94
     LINE   690       46,46,47,96,95
                      47,47,48,97,96
                      48,48,49,98,97
                      49,50,51,100,99       
                      50,51,52,101,100      
     LINE   695       51,52,53,102,101      
                      52,53,54,103,102      
                      53,54,55,104,103      
                      54,55,56,105,104      
                      55,56,57,106,105      
     LINE   700       56,57,58,107,106      
                      57,58,59,108,107      
                      58,59,60,109,108      
                      59,60,61,110,109      
                      60,61,62,111,110      
     LINE   705       61,62,63,112,111      
                      62,63,64,113,112      
                      63,64,65,114,113      
                      64,65,66,115,114      
                      65,66,67,116,115      
     LINE   710       66,67,68,117,116      
                      67,68,69,118,117      
                      68,69,70,119,118      
                      69,70,71,120,119      
                      70,71,72,121,120      
     LINE   715       71,72,73,122,121      
                      72,73,74,123,122      
                      73,74,75,124,123      
                      74,75,76,125,124      
                      75,76,77,126,125      
     LINE   720       76,77,78,127,126      
                      77,78,79,128,127      
                      78,79,80,129,128      
                      79,80,81,130,129      
                      80,81,82,131,130      
     LINE   725       81,82,83,132,131      
                      82,83,84,133,132      
                      83,84,85,134,133      
                      84,85,86,135,134      
                      85,86,87,136,135      
     LINE   730       86,87,88,137,136      
                      87,88,89,138,137      
                      88,89,90,139,138      
                      89,90,91,140,139      
                      90,91,92,141,140      
     LINE   735       91,92,93,142,141      
                      92,93,94,143,142      
                      93,94,95,144,143      
                      94,95,96,145,144      
                      95,96,97,146,145      
     LINE   740       96,97,98,147,146      
                      97,99,100,149,148     
                      98,100,101,150,149    
                      99,101,102,151,150    
                      100,102,103,152,151   
     LINE   745       101,103,104,153,152   
                      102,104,105,154,153   
                      103,105,106,155,154   
                      104,106,107,156,155   
                      105,107,108,157,156   
     LINE   750       106,108,109,158,157   
                      107,109,110,159,158   
                      108,110,111,160,159   
                      109,111,112,161,160   
                      110,112,113,162,161   
     LINE   755       111,113,114,163,162   
                      112,114,115,164,163   
                      113,115,116,165,164   
                      114,116,117,166,165   
                      115,117,118,167,166   
     LINE   760       116,118,119,168,167   
                      117,119,120,169,168   
                      118,120,121,170,169   
                      119,121,122,171,170   
                      120,122,123,172,171   
     LINE   765       121,123,124,173,172   
                      122,124,125,174,173   
                      123,125,126,175,174   
                      124,126,127,176,175   
                      125,127,128,177,176   
     LINE   770       126,128,129,178,177   
                      127,129,130,179,178   
                      128,130,131,180,179   
                      129,131,132,181,180   
                      130,132,133,182,181   
     LINE   775       131,133,134,183,182   
                      132,134,135,184,183   
                      133,135,136,185,184   
                      134,136,137,186,185   
                      135,137,138,187,186   
     LINE   780       136,138,139,188,187   
                      137,139,140,189,188   
                      138,140,141,190,189   
                      139,141,142,191,190   
                      140,142,143,192,191   
     LINE   785       141,143,144,193,192   
                      142,144,145,194,193   
                      143,145,146,195,194   
                      144,146,147,196,195   
                      145,148,149,198,197   
     LINE   790       146,149,150,199,198   
                      147,150,151,200,199   
                      148,151,152,201,200   
                      149,152,153,202,201   
                      150,153,154,203,202   
     LINE   795       151,154,155,204,203   
                      152,155,156,205,204   
                      153,156,157,206,205   
                      154,157,158,207,206   
                      155,158,159,208,207   
     LINE   800       156,159,160,209,208   
                      157,160,161,210,209   
                      158,161,162,211,210   
                      159,162,163,212,211   
                      160,163,164,213,212   
     LINE   805       161,164,165,214,213   
                      162,165,166,215,214   
                      163,166,167,216,215   
                      164,167,168,217,216   
                      165,168,169,218,217   
     LINE   810       166,169,170,219,218   
                      167,170,171,220,219   
                      168,171,172,221,220   
                      169,172,173,222,221   
                      170,173,174,223,222   
     LINE   815       171,174,175,224,223   
                      172,175,176,225,224   
                      173,176,177,226,225   
                      174,177,178,227,226   
                      175,178,179,228,227   
     LINE   820       176,179,180,229,228   
                      177,180,181,230,229   
                      178,181,182,231,230   
                      179,182,183,232,231   
                      180,183,184,233,232   
     LINE   825       181,184,185,234,233   
                      182,185,186,235,234   
                      183,186,187,236,235   
                      184,187,188,237,236   
                      185,188,189,238,237   
     LINE   830       186,189,190,239,238   
                      187,190,191,240,239   
                      188,191,192,241,240   
                      189,192,193,242,241   
                      190,193,194,243,242   
     LINE   835       191,194,195,244,243   
                      192,195,196,245,244   
                      193,197,198,247,246   
                      194,198,199,248,247   
                      195,199,200,249,248   
     LINE   840       196,200,201,250,249   
                      197,201,202,251,250   
                      198,202,203,252,251   
                      199,203,204,253,252   
                      200,204,205,254,253   
     LINE   845       201,205,206,255,254   
                      202,206,207,256,255   
                      203,207,208,257,256   
                      204,208,209,258,257   
                      205,209,210,259,258   
     LINE   850       206,210,211,260,259   
                      207,211,212,261,260   
                      208,212,213,262,261   
                      209,213,214,263,262   
                      210,214,215,264,263   
     LINE   855       211,215,216,265,264   
                      212,216,217,266,265   
                      213,217,218,267,266   
                      214,218,219,268,267   
                      215,219,220,269,268   
     LINE   860       216,220,221,270,269   
                      217,221,222,271,270   
                      218,222,223,272,271   
                      219,223,224,273,272   
                      220,224,225,274,273   
     LINE   865       221,225,226,275,274   
                      222,226,227,276,275   
                      223,227,228,277,276   
                      224,228,229,278,277   
                      225,229,230,279,278   
     LINE   870       226,230,231,280,279   
                      227,231,232,281,280   
                      228,232,233,282,281   
                      229,233,234,283,282   
                      230,234,235,284,283   
     LINE   875       231,235,236,285,284   
                      232,236,237,286,285   
                      233,237,238,287,286   
                      234,238,239,288,287   
                      235,239,240,289,288   
     LINE   880       236,240,241,290,289   
                      237,241,242,291,290   
                      238,242,243,292,291   
                      239,243,244,293,292   
                      240,244,245,294,293   
     LINE   885       241,246,247,296,295   
                      242,247,248,297,296   
                      243,248,249,298,297   
                      244,249,250,299,298   
                      245,250,251,300,299   
     LINE   890       246,251,252,301,300   
                      247,252,253,302,301   
                      248,253,254,303,302   
                      249,254,255,304,303   
                      250,255,256,305,304   
     LINE   895       251,256,257,306,305   
                      252,257,258,307,306   
                      253,258,259,308,307   
                      254,259,260,309,308   
                      255,260,261,310,309   
     LINE   900       256,261,262,311,310   
                      257,262,263,312,311   
                      258,263,264,313,312   
                      259,264,265,314,313   
                      260,265,266,315,314   
     LINE   905       261,266,267,316,315   
                      262,267,268,317,316   
                      263,268,269,318,317   
                      264,269,270,319,318   
                      265,270,271,320,319   
     LINE   910       266,271,272,321,320   
                      267,272,273,322,321   
                      268,273,274,323,322   
                      269,274,275,324,323   
                      270,275,276,325,324   
     LINE   915       271,276,277,326,325   
                      272,277,278,327,326   
                      273,278,279,328,327   
                      274,279,280,329,328   
                      275,280,281,330,329   
     LINE   920       276,281,282,331,330   
                      277,282,283,332,331   
                      278,283,284,333,332   
                      279,284,285,334,333   
                      280,285,286,335,334   
     LINE   925       281,286,287,336,335   
                      282,287,288,337,336   
                      283,288,289,338,337   
                      284,289,290,339,338   
                      285,290,291,340,339   
     LINE   930       286,291,292,341,340   
                      287,292,293,342,341   
                      288,293,294,343,342   
                      289,295,296,345,344   
                      290,296,297,346,345   
     LINE   935       291,297,298,347,346   
                      292,298,299,348,347   
                      293,299,300,349,348   
                      294,300,301,350,349   
                      295,301,302,351,350   
     LINE   940       296,302,303,352,351   
                      297,303,304,353,352   
                      298,304,305,354,353   
                      299,305,306,355,354   
                      300,306,307,356,355   
     LINE   945       301,307,308,357,356   
                      302,308,309,358,357   
                      303,309,310,359,358   
                      304,310,311,360,359   
                      305,311,312,361,360   
     LINE   950       306,312,313,362,361   
                      307,313,314,363,362   
                      308,314,315,364,363   
                      309,315,316,365,364   
                      310,316,317,366,365   
     LINE   955       311,317,318,367,366   
                      312,318,319,368,367   
                      313,319,320,369,368   
                      314,320,321,370,369   
                      315,321,322,371,370   
     LINE   960       316,322,323,372,371   
                      317,323,324,373,372   
                      318,324,325,374,373   
                      319,325,326,375,374   
                      320,326,327,376,375   
     LINE   965       321,327,328,377,376   
                      322,328,329,378,377   
                      323,329,330,379,378   
                      324,330,331,380,379   
                      325,331,332,381,380   
     LINE   970       326,332,333,382,381   
                      327,333,334,383,382   
                      328,334,335,384,383   
                      329,335,336,385,384   
                      330,336,337,386,385   
     LINE   975       331,337,338,387,386   
                      332,338,339,388,387   
                      333,339,340,389,388   
                      334,340,341,390,389   
                      335,341,342,391,390   
     LINE   980       336,342,343,392,391   
                      337,344,345,394,393   
                      338,345,346,395,394   
                      339,346,347,396,395   
                      340,347,348,397,396   
     LINE   985       341,348,349,398,397   
                      342,349,350,399,398   
                      343,350,351,400,399   
                      344,351,352,401,400   
                      345,352,353,402,401   
     LINE   990       346,353,354,403,402   
                      347,354,355,404,403   
                      348,355,356,405,404   
                      349,356,357,406,405   
                      350,357,358,407,406   
     LINE   995       351,358,359,408,407   
                      352,359,360,409,408   
                      353,360,361,410,409   
                      354,361,362,411,410   
                      355,362,363,412,411   
     LINE  1000       356,363,364,413,412   
                      357,364,365,414,413   
                      358,365,366,415,414   
                      359,366,367,416,415   
                      360,367,368,417,416   
     LINE  1005       361,368,369,418,417   
                      362,369,370,419,418   
                      363,370,371,420,419   
                      364,371,372,421,420   
                      365,372,373,422,421   
     LINE  1010       366,373,374,423,422   
                      367,374,375,424,423   
                      368,375,376,425,424   
                      369,376,377,426,425   
                      370,377,378,427,426   
     LINE  1015       371,378,379,428,427   
                      372,379,380,429,428   
                      373,380,381,430,429   
                      374,381,382,431,430   
                      375,382,383,432,431   
     LINE  1020       376,383,384,433,432   
                      377,384,385,434,433   
                      378,385,386,435,434   
                      379,386,387,436,435   
                      380,387,388,437,436   
     LINE  1025       381,388,389,438,437   
                      382,389,390,439,438   
                      383,390,391,440,439   
                      384,391,392,441,440   
                      385,393,394,443,442   
     LINE  1030       386,394,395,444,443   
                      387,395,396,445,444   
                      388,396,397,446,445   
                      389,397,398,447,446   
                      390,398,399,448,447   
     LINE  1035       391,399,400,449,448   
                      392,400,401,450,449   
                      393,401,402,451,450   
                      394,402,403,452,451   
                      395,403,404,453,452   
     LINE  1040       396,404,405,454,453   
                      397,405,406,455,454   
                      398,406,407,456,455   
                      399,407,408,457,456   
                      400,408,409,458,457   
     LINE  1045       401,409,410,459,458   
                      402,410,411,460,459   
                      403,411,412,461,460   
                      404,412,413,462,461   
                      405,413,414,463,462   
     LINE  1050       406,414,415,464,463   
                      407,415,416,465,464   
                      408,416,417,466,465   
                      409,417,418,467,466   
                      410,418,419,468,467   
     LINE  1055       411,419,420,469,468   
                      412,420,421,470,469   
                      413,421,422,471,470   
                      414,422,423,472,471   
                      415,423,424,473,472   
     LINE  1060       416,424,425,474,473   
                      417,425,426,475,474   
                      418,426,427,476,475   
                      419,427,428,477,476   
                      420,428,429,478,477   
     LINE  1065       421,429,430,479,478   
                      422,430,431,480,479   
                      423,431,432,481,480   
                      424,432,433,482,481   
                      425,433,434,483,482   
     LINE  1070       426,434,435,484,483   
                      427,435,436,485,484   
                      428,436,437,486,485   
                      429,437,438,487,486   
                      430,438,439,488,487   
     LINE  1075       431,439,440,489,488   
                      432,440,441,490,489   
                      433,442,443,492,491   
                      434,443,444,493,492   
                      435,444,445,494,493   
     LINE  1080       436,445,446,495,494   
                      437,446,447,496,495   
                      438,447,448,497,496   
                      439,448,449,498,497   
                      440,449,450,499,498   
     LINE  1085       441,450,451,500,499   
                      442,451,452,501,500   
                      443,452,453,502,501   
                      444,453,454,503,502   
                      445,454,455,504,503   
     LINE  1090       446,455,456,505,504   
                      447,456,457,506,505   
                      448,457,458,507,506   
                      449,458,459,508,507   
                      450,459,460,509,508   
     LINE  1095       451,460,461,510,509   
                      452,461,462,511,510   
                      453,462,463,512,511   
                      454,463,464,513,512   
                      455,464,465,514,513   
     LINE  1100       456,465,466,515,514   
                      457,466,467,516,515   
                      458,467,468,517,516   
                      459,468,469,518,517   
                      460,469,470,519,518   
     LINE  1105       461,470,471,520,519   
                      462,471,472,521,520   
                      463,472,473,522,521   
                      464,473,474,523,522   
                      465,474,475,524,523   
     LINE  1110       466,475,476,525,524   
                      467,476,477,526,525   
                      468,477,478,527,526   
                      469,478,479,528,527   
                      470,479,480,529,528   
     LINE  1115       471,480,481,530,529   
                      472,481,482,531,530   
                      473,482,483,532,531   
                      474,483,484,533,532   
                      475,484,485,534,533   
     LINE  1120       476,485,486,535,534   
                      477,486,487,536,535   
                      478,487,488,537,536   
                      479,488,489,538,537   
                      480,489,490,539,538   
     LINE  1125       481,491,492,541,540   
                      482,492,493,542,541   
                      483,493,494,543,542   
                      484,494,495,544,543   
                      485,495,496,545,544   
     LINE  1130       486,496,497,546,545   
                      487,497,498,547,546   
                      488,498,499,548,547   
                      489,499,500,549,548   
                      490,500,501,550,549   
     LINE  1135       491,501,502,551,550   
                      492,502,503,552,551   
                      493,503,504,553,552   
                      494,504,505,554,553   
                      495,505,506,555,554   
     LINE  1140       496,506,507,556,555   
                      497,507,508,557,556   
                      498,508,509,558,557   
                      499,509,510,559,558   
                      500,510,511,560,559   
     LINE  1145       501,511,512,561,560   
                      502,512,513,562,561   
                      503,513,514,563,562   
                      504,514,515,564,563   
                      505,515,516,565,564   
     LINE  1150       506,516,517,566,565   
                      507,517,518,567,566   
                      508,518,519,568,567   
                      509,519,520,569,568   
                      510,520,521,570,569   
     LINE  1155       511,521,522,571,570   
                      512,522,523,572,571   
                      513,523,524,573,572   
                      514,524,525,574,573   
                      515,525,526,575,574   
     LINE  1160       516,526,527,576,575   
                      517,527,528,577,576   
                      518,528,529,578,577   
                      519,529,530,579,578   
                      520,530,531,580,579   
     LINE  1165       521,531,532,581,580   
                      522,532,533,582,581   
                      523,533,534,583,582   
                      524,534,535,584,583   
                      525,535,536,585,584   
     LINE  1170       526,536,537,586,585   
                      527,537,538,587,586   
                      528,538,539,588,587   
                      529,540,541,590,589   
                      530,541,542,591,590   
     LINE  1175       531,542,543,592,591   
                      532,543,544,593,592   
                      533,544,545,594,593   
                      534,545,546,595,594   
                      535,546,547,596,595   
     LINE  1180       536,547,548,597,596   
                      537,548,549,598,597   
                      538,549,550,599,598   
                      539,550,551,600,599   
                      540,551,552,601,600   
     LINE  1185       541,552,553,602,601   
                      542,553,554,603,602   
                      543,554,555,604,603   
                      544,555,556,605,604   
                      545,556,557,606,605   
     LINE  1190       546,557,558,607,606   
                      547,558,559,608,607   
                      548,559,560,609,608   
                      549,560,561,610,609   
                      550,561,562,611,610   
     LINE  1195       551,562,563,612,611   
                      552,563,564,613,612   
                      553,564,565,614,613   
                      554,565,566,615,614   
                      555,566,567,616,615   
     LINE  1200       556,567,568,617,616   
                      557,568,569,618,617   
                      558,569,570,619,618   
                      559,570,571,620,619   
                      560,571,572,621,620   
     LINE  1205       561,572,573,622,621   
                      562,573,574,623,622   
                      563,574,575,624,623   
                      564,575,576,625,624   
                      565,576,577,626,625   
     LINE  1210       566,577,578,627,626   
                      567,578,579,628,627   
                      568,579,580,629,628   
                      569,580,581,630,629   
                      570,581,582,631,630   
     LINE  1215       571,582,583,632,631   
                      572,583,584,633,632   
                      573,584,585,634,633   
                      574,585,586,635,634   
                      575,586,587,636,635   
     LINE  1220       576,587,588,637,636   
                    *UEL PROPERTY, ELSET=EALL       
                      3e+07, 0.3    
                    *Nset, nset=Set_boundary, generate      
                      1, 589, 49    
     LINE  1225     *Nset, nset=Set_1       
                      49, 637       
                    *Nset, nset=Set_2       
                      98, 588       
                    *Nset, nset=Set_3       
     LINE  1230       147, 539      
                    *Nset, nset=Set_4       
                      196, 490      
                    *Nset, nset=Set_5       
                      245, 441      
     LINE  1235     *Nset, nset=Set_6       
                      294, 392      
                    *Nset, nset=Set_7       
                      343   
                    *BOUNDARY       
     LINE  1240     Set_boundary, ENCASTRE  
                    *STEP   
                    *STATIC 
                    1.,1.,1e-05,1.  
                    *CLOAD  
     LINE  1245     Set_1, 2, 0.0   
                    Set_2, 2, -38.194       
                    Set_3, 2, -69.44
                    Set_4, 2, -93.75
                    Set_5, 2, -111.11       
     LINE  1250     Set_6, 2, -121.52       
                    Set_7, 2, -125.0
                    *OUTPUT,FIELD   
                    *ENERGY FILE    
                    *OUTPUT,HISTORY,FREQUENCY=1     
     LINE  1255     *ENERGY OUTPUT,VARIABLE=PRESELECT       
                    *NODE FILE      
                    U,COORD 
                    *OUTPUT,FIELD   
                    *NODE OUTPUT    
     LINE  1260     U,COORD 
                    *NODE PRINT     
                    U,COORD 
                    *EL PRINT       
                    SDV     
     LINE  1265     *END STEP       
                    --------------------------------------------------------------------------------
                        5   10   15   20   25   30   35   40   45   50   55   60   65   70   75   80
                    --------------------------------------------------------------------------------



     OPTIONS BEING PROCESSED
   ***************************


  *USER ELEMENT, NODES=4, TYPE=U1, COORDINATES=2, PROPERTIES=2, VARIABLES=8
  *HEADING
          Plane Stress Linear Static analysis of Beam under Parabolic Loading                                                                                                                                                                                             
  *NODE
  *ELEMENT, TYPE=U1, ELSET=EALL
  *Nset, nset=Set_boundary, generate
  *Nset, nset=Set_1
  *Nset, nset=Set_2
  *Nset, nset=Set_3
  *Nset, nset=Set_4
  *Nset, nset=Set_5
  *Nset, nset=Set_6
  *Nset, nset=Set_7
  *USER ELEMENT, NODES=4, TYPE=U1, COORDINATES=2, PROPERTIES=2, VARIABLES=8
  *BOUNDARY
  *BOUNDARY
  *UEL PROPERTY, ELSET=EALL
  *OUTPUT,FIELD
  *OUTPUT,HISTORY,FREQUENCY=1
  *OUTPUT,FIELD
  *OUTPUT,FIELD
  *OUTPUT,HISTORY,FREQUENCY=1
  *OUTPUT,FIELD
  *OUTPUT,FIELD
  *OUTPUT,HISTORY,FREQUENCY=1
  *OUTPUT,FIELD
  *STEP
  *OUTPUT,FIELD
  *OUTPUT,HISTORY,FREQUENCY=1
  *OUTPUT,FIELD
  *STEP
  *STEP
  *STATIC
  *OUTPUT,FIELD
  *ENERGY FILE
  *OUTPUT,HISTORY,FREQUENCY=1
  *ENERGY OUTPUT,VARIABLE=PRESELECT
  *NODE FILE
  *OUTPUT,FIELD
  *NODE OUTPUT
  *NODE PRINT
  *EL PRINT
  *END STEP
  *BOUNDARY
  *STEP
  *STATIC
  *CLOAD
  *END STEP



                            P R O B L E M   S I Z E


          NUMBER OF ELEMENTS IS                                   576
          NUMBER OF NODES IS                                      637
          NUMBER OF NODES DEFINED BY THE USER                     637
          TOTAL NUMBER OF VARIABLES IN THE MODEL                 1274
          (DEGREES OF FREEDOM PLUS MAX NO. OF ANY LAGRANGE MULTIPLIER
           VARIABLES. INCLUDE *PRINT,SOLVE=YES TO GET THE ACTUAL NUMBER.)



                              END OF USER INPUT PROCESSING



     JOB TIME SUMMARY
       USER TIME (SEC)      =  0.10000    
       SYSTEM TIME (SEC)    =   0.0000    
       TOTAL CPU TIME (SEC) =  0.10000    
       WALLCLOCK TIME (SEC) =          1
1

   Abaqus 3DEXPERIENCE R2018x                                  Date 11-May-2020   Time 14:17:15
   For use by Supplied by Team-SolidSQUAD under license from Dassault Systemes or its subsidiary.

     Plane Stress Linear Static analysis of Beam under Parabolic Loading                       STEP    1  INCREMENT    1
                                                                                          TIME COMPLETED IN THIS STEP   0.00    


                        S T E P       1     S T A T I C   A N A L Y S I S


                                                                                          

     AUTOMATIC TIME CONTROL WITH -
          A SUGGESTED INITIAL TIME INCREMENT OF                 1.00    
          AND A TOTAL TIME PERIOD OF                            1.00    
          THE MINIMUM TIME INCREMENT ALLOWED IS                1.000E-05
          THE MAXIMUM TIME INCREMENT ALLOWED IS                 1.00    

     LINEAR EQUATION SOLVER TYPE         DIRECT SPARSE
  
                   M E M O R Y   E S T I M A T E
  
 PROCESS      FLOATING PT       MINIMUM MEMORY        MEMORY TO
              OPERATIONS           REQUIRED          MINIMIZE I/O
             PER ITERATION           (MB)               (MB)
  
     1          1.72E+06               17                 25
  
 NOTE:
      (1) SINCE ABAQUS DOES NOT PRE-ALLOCATE MEMORY AND ONLY ALLOCATES MEMORY AS NEEDED DURING THE ANALYSIS,
          THE MEMORY REQUIREMENT PRINTED HERE CAN ONLY BE VIEWED AS A GENERAL GUIDELINE BASED ON THE BEST
          KNOWLEDGE AVAILABLE AT THE BEGINNING OF A STEP BEFORE THE SOLUTION PROCESS HAS BEGUN.
      (2) THE ESTIMATE IS NORMALLY UPDATED AT THE BEGINNING OF EVERY STEP. IT IS THE MAXIMUM VALUE OF THE
          ESTIMATE FROM THE CURRENT STEP TO THE LAST STEP OF THE ANALYSIS, WITH UNSYMMETRIC SOLUTION TAKEN
          INTO ACCOUNT IF APPLICABLE. 
      (3) SINCE THE ESTIMATE IS BASED ON THE ACTIVE DEGREES OF FREEDOM IN THE FIRST ITERATION OF THE 
          CURRENT STEP, THE MEMORY ESTIMATE MIGHT BE SIGNIFICANTLY DIFFERENT THAN ACTUAL USAGE FOR 
          PROBLEMS WITH SUBSTANTIAL CHANGES IN ACTIVE DEGREES OF FREEDOM BETWEEN STEPS (OR EVEN WITHIN
          THE SAME STEP). EXAMPLES ARE: PROBLEMS WITH SIGNIFICANT CONTACT CHANGES, PROBLEMS WITH MODEL
          CHANGE, PROBLEMS WITH BOTH STATIC STEP AND STEADY STATE DYNAMIC PROCEDURES WHERE ACOUSTIC 
          ELEMENTS WILL ONLY BE ACTIVATED IN THE STEADY STATE DYNAMIC STEPS.
      (4) FOR MULTI-PROCESS EXECUTION, THE ESTIMATED VALUE OF FLOATING POINT OPERATIONS FOR EACH PROCESS
          IS BASED ON AN INITIAL SCHEDULING OF OPERATIONS AND MIGHT NOT REFLECT THE ACTUAL FLOATING 
          POINT OPERATIONS COMPLETED ON EACH PROCESS. OPERATIONS ARE DYNAMICALLY BALANCED DURING EXECUTION, 
          SO THE ACTUAL BALANCE OF OPERATIONS BETWEEN PROCESSES IS EXPECTED TO BE BETTER THAN THE ESTIMATE
          PRINTED HERE.
      (5) THE UPPER LIMIT OF MEMORY THAT CAN BE ALLOCATED BY ABAQUS WILL IN GENERAL DEPEND ON THE VALUE OF
          THE "MEMORY" PARAMETER AND THE AMOUNT OF PHYSICAL MEMORY AVAILABLE ON THE MACHINE. PLEASE SEE
          THE "ABAQUS ANALYSIS USER'S MANUAL" FOR MORE DETAILS. THE ACTUAL USAGE OF MEMORY AND OF DISK
          SPACE FOR SCRATCH DATA WILL DEPEND ON THIS UPPER LIMIT AS WELL AS THE MEMORY REQUIRED TO MINIMIZE
          I/O. IF THE MEMORY UPPER LIMIT IS GREATER THAN THE MEMORY REQUIRED TO MINIMIZE I/O, THEN THE ACTUAL
          MEMORY USAGE WILL BE CLOSE TO THE ESTIMATED "MEMORY TO MINIMIZE I/O" VALUE, AND THE SCRATCH DISK
          USAGE WILL BE CLOSE-TO-ZERO; OTHERWISE, THE ACTUAL MEMORY USED WILL BE CLOSE TO THE PREVIOUSLY
          MENTIONED MEMORY LIMIT, AND THE SCRATCH DISK USAGE WILL BE ROUGHLY PROPORTIONAL TO THE DIFFERENCE
          BETWEEN THE ESTIMATED "MEMORY TO MINIMIZE I/O" AND THE MEMORY UPPER LIMIT. HOWEVER ACCURATE
          ESTIMATE OF THE SCRATCH DISK SPACE IS NOT POSSIBLE.
      (6) USING "*RESTART, WRITE" CAN GENERATE A LARGE AMOUNT OF DATA WRITTEN IN THE WORK DIRECTORY.


                                INCREMENT     1 SUMMARY


 TIME INCREMENT COMPLETED   1.00    ,  FRACTION OF STEP COMPLETED   1.00    
 STEP TIME COMPLETED        1.00    ,  TOTAL TIME COMPLETED         1.00    



                                                  E L E M E N T   O U T P U T





   THE FOLLOWING TABLE IS PRINTED FOR ALL ELEMENTS WITH TYPE U1 AT THE INTEGRATION POINTS

    ELEMENT  PT FOOT-       SDV1        SDV2        SDV3        SDV4        SDV5        SDV6        SDV7        SDV8        
                NOTE 

           1   1         -1975.      -319.9      -272.6     -6.2649E-05  9.0915E-06 -1.1812E-05  0.5000      0.5000
           2   1         -1742.      -2.198      -32.30     -5.8056E-05  1.7350E-05 -1.3998E-06  0.5000      0.5000
           3   1         -1677.      -6.598      -16.39     -5.5827E-05  1.6548E-05 -7.1016E-07  0.5000      0.5000
           4   1         -1649.     -0.1473      -10.69     -5.4955E-05  1.6482E-05 -4.6342E-07  0.5000      0.5000
           5   1         -1625.      0.8008      -11.47     -5.4164E-05  1.6274E-05 -4.9701E-07  0.5000      0.5000
           6   1         -1599.       1.014      -13.50     -5.3313E-05  1.6025E-05 -5.8488E-07  0.5000      0.5000
           7   1         -1570.      0.8882      -15.58     -5.2337E-05  1.5728E-05 -6.7512E-07  0.5000      0.5000
           8   1         -1537.      0.6490      -17.25     -5.1247E-05  1.5394E-05 -7.4737E-07  0.5000      0.5000
           9   1         -1502.      0.4102      -18.39     -5.0072E-05  1.5034E-05 -7.9682E-07  0.5000      0.5000
          10   1         -1465.      0.2181      -19.06     -4.8841E-05  1.4659E-05 -8.2590E-07  0.5000      0.5000
          11   1         -1427.      8.9007E-02  -19.38     -4.7580E-05  1.4277E-05 -8.3988E-07  0.5000      0.5000
          12   1         -1389.      1.7576E-02  -19.49     -4.6306E-05  1.3892E-05 -8.4456E-07  0.5000      0.5000
          13   1         -1351.     -1.2938E-02  -19.49     -4.5030E-05  1.3508E-05 -8.4457E-07  0.5000      0.5000
          14   1         -1313.     -1.9871E-02  -19.45     -4.3754E-05  1.3126E-05 -8.4294E-07  0.5000      0.5000
          15   1         -1274.     -1.6914E-02  -19.41     -4.2481E-05  1.2744E-05 -8.4119E-07  0.5000      0.5000
          16   1         -1236.     -1.1217E-02  -19.38     -4.1211E-05  1.2363E-05 -8.3987E-07  0.5000      0.5000
          17   1         -1198.     -6.1765E-03  -19.36     -3.9942E-05  1.1982E-05 -8.3906E-07  0.5000      0.5000
          18   1         -1160.     -2.7276E-03  -19.35     -3.8673E-05  1.1602E-05 -8.3866E-07  0.5000      0.5000
          19   1         -1122.     -7.7796E-04  -19.35     -3.7405E-05  1.1222E-05 -8.3850E-07  0.5000      0.5000
          20   1         -1084.      1.1802E-04  -19.35     -3.6138E-05  1.0841E-05 -8.3847E-07  0.5000      0.5000
          21   1         -1046.      4.0068E-04  -19.35     -3.4870E-05  1.0461E-05 -8.3850E-07  0.5000      0.5000
          22   1         -1008.      3.9125E-04  -19.35     -3.3602E-05  1.0081E-05 -8.3854E-07  0.5000      0.5000
          23   1         -970.0      2.8184E-04  -19.35     -3.2334E-05  9.7002E-06 -8.3857E-07  0.5000      0.5000
          24   1         -932.0      1.6741E-04  -19.35     -3.1066E-05  9.3198E-06 -8.3859E-07  0.5000      0.5000
          25   1         -893.9      8.3112E-05  -19.35     -2.9798E-05  8.9394E-06 -8.3860E-07  0.5000      0.5000
          26   1         -855.9      3.3590E-05  -19.35     -2.8530E-05  8.5590E-06 -8.3861E-07  0.5000      0.5000
          27   1         -817.9      1.1375E-05  -19.35     -2.7262E-05  8.1786E-06 -8.3861E-07  0.5000      0.5000
          28   1         -779.8      6.1127E-06  -19.35     -2.5994E-05  7.7982E-06 -8.3861E-07  0.5000      0.5000
          29   1         -741.8      7.6597E-06  -19.35     -2.4726E-05  7.4178E-06 -8.3861E-07  0.5000      0.5000
          30   1         -703.7      5.6250E-06  -19.35     -2.3458E-05  7.0374E-06 -8.3861E-07  0.5000      0.5000
          31   1         -665.7     -1.2512E-05  -19.35     -2.2190E-05  6.6570E-06 -8.3861E-07  0.5000      0.5000
          32   1         -627.7     -6.3185E-05  -19.35     -2.0922E-05  6.2766E-06 -8.3861E-07  0.5000      0.5000
          33   1         -589.6     -1.6490E-04  -19.35     -1.9654E-05  5.8962E-06 -8.3860E-07  0.5000      0.5000
          34   1         -551.6     -3.3241E-04  -19.35     -1.8386E-05  5.5158E-06 -8.3858E-07  0.5000      0.5000
          35   1         -513.5     -5.4995E-04  -19.35     -1.7118E-05  5.1354E-06 -8.3854E-07  0.5000      0.5000
          36   1         -475.5     -7.4553E-04  -19.35     -1.5850E-05  4.7550E-06 -8.3847E-07  0.5000      0.5000
          37   1         -437.5     -6.9695E-04  -19.35     -1.4582E-05  4.3747E-06 -8.3840E-07  0.5000      0.5000
          38   1         -399.4     -1.5921E-05  -19.35     -1.3315E-05  3.9944E-06 -8.3837E-07  0.5000      0.5000
          39   1         -361.4      1.7992E-03  -19.35     -1.2047E-05  3.6142E-06 -8.3844E-07  0.5000      0.5000
          40   1         -323.4      5.2502E-03  -19.36     -1.0779E-05  3.2339E-06 -8.3876E-07  0.5000      0.5000
          41   1         -285.3      1.0816E-02  -19.37     -9.5104E-06  2.8534E-06 -8.3950E-07  0.5000      0.5000
          42   1         -247.2      1.8734E-02  -19.40     -8.2402E-06  2.4726E-06 -8.4087E-07  0.5000      0.5000
          43   1         -209.0      3.1891E-02  -19.46     -6.9675E-06  2.0912E-06 -8.4319E-07  0.5000      0.5000
          44   1         -170.7      4.1524E-02  -19.54     -5.6904E-06  1.7084E-06 -8.4675E-07  0.5000      0.5000
          45   1         -132.2      0.1252      -19.69     -4.4079E-06  1.3262E-06 -8.5337E-07  0.5000      0.5000
          46   1         -93.36     -0.1313      -19.82     -3.1108E-06  9.2926E-07 -8.5896E-07  0.5000      0.5000
          47   1         -54.11       1.987      -20.93     -1.8234E-06  6.0729E-07 -9.0676E-07  0.5000      0.5000
          48   1         -17.39      -10.98      -16.62     -4.6995E-07 -1.9210E-07 -7.2015E-07  0.5000      0.5000
          49   1         -1402.      -327.0      -173.7     -4.3468E-05  3.1204E-06 -7.5252E-06  0.5000      0.5000
          50   1         -1512.      -152.9      -168.9     -4.8856E-05  1.0019E-05 -7.3185E-06  0.5000      0.5000
          51   1         -1437.      -20.04      -59.70     -4.7704E-05  1.3703E-05 -2.5871E-06  0.5000      0.5000
          52   1         -1387.      -6.196      -43.60     -4.6181E-05  1.3666E-05 -1.8895E-06  0.5000      0.5000
          53   1         -1352.       2.510      -39.84     -4.5089E-05  1.3603E-05 -1.7264E-06  0.5000      0.5000
          54   1         -1320.       3.989      -42.48     -4.4052E-05  1.3337E-05 -1.8410E-06  0.5000      0.5000
          55   1         -1290.       3.776      -46.25     -4.3040E-05  1.3027E-05 -2.0040E-06  0.5000      0.5000
          56   1         -1260.       2.824      -49.56     -4.2018E-05  1.2691E-05 -2.1476E-06  0.5000      0.5000
          57   1         -1229.       1.797      -51.89     -4.0986E-05  1.2350E-05 -2.2488E-06  0.5000      0.5000
          58   1         -1198.      0.9570      -53.28     -3.9948E-05  1.2014E-05 -2.3086E-06  0.5000      0.5000
          59   1         -1167.      0.3945      -53.95     -3.8908E-05  1.1685E-05 -2.3377E-06  0.5000      0.5000
          60   1         -1136.      8.3240E-02  -54.18     -3.7869E-05  1.1363E-05 -2.3478E-06  0.5000      0.5000
          61   1         -1105.     -4.9619E-02  -54.20     -3.6830E-05  1.1048E-05 -2.3485E-06  0.5000      0.5000
          62   1         -1074.     -8.2773E-02  -54.13     -3.5792E-05  1.0735E-05 -2.3456E-06  0.5000      0.5000
          63   1         -1043.     -7.1634E-02  -54.05     -3.4755E-05  1.0424E-05 -2.3423E-06  0.5000      0.5000
          64   1         -1012.     -4.8186E-02  -53.99     -3.3717E-05  1.0114E-05 -2.3398E-06  0.5000      0.5000
          65   1         -980.4     -2.6841E-02  -53.96     -3.2680E-05  9.8031E-06 -2.3381E-06  0.5000      0.5000
          66   1         -949.3     -1.2063E-02  -53.94     -3.1642E-05  9.4923E-06 -2.3373E-06  0.5000      0.5000
          67   1         -918.1     -3.5993E-03  -53.93     -3.0605E-05  9.1813E-06 -2.3370E-06  0.5000      0.5000
          68   1         -887.0      3.4978E-04  -53.93     -2.9567E-05  8.8702E-06 -2.3369E-06  0.5000      0.5000
          69   1         -855.9      1.6422E-03  -53.93     -2.8530E-05  8.5590E-06 -2.3369E-06  0.5000      0.5000
          70   1         -824.8      1.6505E-03  -53.93     -2.7492E-05  8.2478E-06 -2.3370E-06  0.5000      0.5000
          71   1         -793.7      1.2058E-03  -53.93     -2.6455E-05  7.9365E-06 -2.3371E-06  0.5000      0.5000
          72   1         -762.5      7.2461E-04  -53.93     -2.5418E-05  7.6253E-06 -2.3371E-06  0.5000      0.5000
          73   1         -731.4      3.6473E-04  -53.93     -2.4380E-05  7.3141E-06 -2.3371E-06  0.5000      0.5000
          74   1         -700.3      1.5075E-04  -53.93     -2.3343E-05  7.0028E-06 -2.3372E-06  0.5000      0.5000
          75   1         -669.2      5.2998E-05  -53.93     -2.2305E-05  6.6916E-06 -2.3372E-06  0.5000      0.5000
          76   1         -638.0      2.7902E-05  -53.93     -2.1268E-05  6.3803E-06 -2.3372E-06  0.5000      0.5000
          77   1         -606.9      3.1886E-05  -53.93     -2.0230E-05  6.0691E-06 -2.3372E-06  0.5000      0.5000
          78   1         -575.8      1.9988E-05  -53.93     -1.9193E-05  5.7579E-06 -2.3372E-06  0.5000      0.5000
          79   1         -544.7     -6.1971E-05  -53.93     -1.8155E-05  5.4466E-06 -2.3372E-06  0.5000      0.5000
          80   1         -513.5     -2.8331E-04  -53.93     -1.7118E-05  5.1354E-06 -2.3372E-06  0.5000      0.5000
          81   1         -482.4     -7.2277E-04  -53.93     -1.6081E-05  4.8241E-06 -2.3371E-06  0.5000      0.5000
          82   1         -451.3     -1.4320E-03  -53.93     -1.5043E-05  4.5129E-06 -2.3371E-06  0.5000      0.5000
          83   1         -420.2     -2.3506E-03  -53.93     -1.4006E-05  4.2016E-06 -2.3370E-06  0.5000      0.5000
          84   1         -389.0     -3.1254E-03  -53.93     -1.2968E-05  3.8904E-06 -2.3369E-06  0.5000      0.5000
          85   1         -357.9     -2.8790E-03  -53.93     -1.1931E-05  3.5791E-06 -2.3368E-06  0.5000      0.5000
          86   1         -326.8      9.7202E-05  -53.92     -1.0893E-05  3.2680E-06 -2.3367E-06  0.5000      0.5000
          87   1         -295.7      8.1079E-03  -53.93     -9.8559E-06  2.9570E-06 -2.3369E-06  0.5000      0.5000
          88   1         -264.5      2.3613E-02  -53.94     -8.8186E-06  2.6463E-06 -2.3376E-06  0.5000      0.5000
          89   1         -233.4      4.8353E-02  -53.98     -7.7811E-06  2.3358E-06 -2.3391E-06  0.5000      0.5000
          90   1         -202.3      8.5085E-02  -54.05     -6.7434E-06  2.0256E-06 -2.3421E-06  0.5000      0.5000
          91   1         -171.1      0.1298      -54.16     -5.7053E-06  1.7155E-06 -2.3468E-06  0.5000      0.5000
          92   1         -140.0      0.2172      -54.33     -4.6675E-06  1.4069E-06 -2.3542E-06  0.5000      0.5000
          93   1         -108.8      0.1982      -54.48     -3.6298E-06  1.0949E-06 -2.3606E-06  0.5000      0.5000
          94   1         -77.97      0.7610      -54.96     -2.6068E-06  8.0511E-07 -2.3815E-06  0.5000      0.5000
          95   1         -48.96      -1.580      -52.80     -1.6162E-06  4.3693E-07 -2.2879E-06  0.5000      0.5000
          96   1         -17.41      -7.365      -52.75     -5.0656E-07 -7.1439E-08 -2.2860E-06  0.5000      0.5000
          97   1         -1060.      -266.0      -72.24     -3.2668E-05  1.7309E-06 -3.1303E-06  0.5000      0.5000
          98   1         -1112.      -174.0      -121.3     -3.5334E-05  5.3226E-06 -5.2550E-06  0.5000      0.5000
          99   1         -1147.      -79.43      -119.9     -3.7427E-05  8.8188E-06 -5.1962E-06  0.5000      0.5000
         100   1         -1109.      -14.94      -81.47     -3.6822E-05  1.0594E-05 -3.5302E-06  0.5000      0.5000
         101   1         -1072.      0.5868      -74.17     -3.5748E-05  1.0742E-05 -3.2139E-06  0.5000      0.5000
         102   1         -1040.       6.769      -73.33     -3.4720E-05  1.0621E-05 -3.1775E-06  0.5000      0.5000
         103   1         -1010.       6.980      -75.63     -3.3732E-05  1.0331E-05 -3.2774E-06  0.5000      0.5000
         104   1         -982.4       5.413      -78.12     -3.2802E-05  1.0005E-05 -3.3853E-06  0.5000      0.5000
         105   1         -956.5       3.456      -79.96     -3.1918E-05  9.6804E-06 -3.4651E-06  0.5000      0.5000
         106   1         -931.6       1.839      -81.05     -3.1071E-05  9.3772E-06 -3.5122E-06  0.5000      0.5000
         107   1         -907.2      0.7606      -81.57     -3.0248E-05  9.0976E-06 -3.5347E-06  0.5000      0.5000
         108   1         -883.1      0.1723      -81.76     -2.9439E-05  8.8368E-06 -3.5429E-06  0.5000      0.5000
         109   1         -859.1     -8.2880E-02  -81.78     -2.8634E-05  8.5878E-06 -3.5439E-06  0.5000      0.5000
         110   1         -835.0     -0.1499      -81.74     -2.7831E-05  8.3449E-06 -3.5421E-06  0.5000      0.5000
         111   1         -810.9     -0.1325      -81.69     -2.7028E-05  8.1043E-06 -3.5398E-06  0.5000      0.5000
         112   1         -786.7     -9.0340E-02  -81.65     -2.6223E-05  7.8642E-06 -3.5380E-06  0.5000      0.5000
         113   1         -762.5     -5.0973E-02  -81.62     -2.5417E-05  7.6236E-06 -3.5368E-06  0.5000      0.5000
         114   1         -738.3     -2.3302E-02  -81.60     -2.4611E-05  7.3825E-06 -3.5362E-06  0.5000      0.5000
         115   1         -714.1     -7.2568E-03  -81.60     -2.3804E-05  7.1410E-06 -3.5359E-06  0.5000      0.5000
         116   1         -689.9      3.5006E-04  -81.60     -2.2997E-05  6.8991E-06 -3.5358E-06  0.5000      0.5000
         117   1         -665.7      2.9273E-03  -81.60     -2.2190E-05  6.6571E-06 -3.5358E-06  0.5000      0.5000
         118   1         -641.5      3.0379E-03  -81.60     -2.1383E-05  6.4150E-06 -3.5359E-06  0.5000      0.5000
         119   1         -617.3      2.2531E-03  -81.60     -2.0576E-05  6.1729E-06 -3.5359E-06  0.5000      0.5000
         120   1         -593.1      1.3702E-03  -81.60     -1.9769E-05  5.9308E-06 -3.5360E-06  0.5000      0.5000
         121   1         -568.9      6.9934E-04  -81.60     -1.8962E-05  5.6887E-06 -3.5360E-06  0.5000      0.5000
         122   1         -544.7      2.9543E-04  -81.60     -1.8155E-05  5.4466E-06 -3.5360E-06  0.5000      0.5000
         123   1         -520.5      1.0749E-04  -81.60     -1.7349E-05  5.2046E-06 -3.5360E-06  0.5000      0.5000
         124   1         -496.2      5.5552E-05  -81.60     -1.6542E-05  4.9625E-06 -3.5360E-06  0.5000      0.5000
         125   1         -472.0      5.7855E-05  -81.60     -1.5735E-05  4.7204E-06 -3.5360E-06  0.5000      0.5000
         126   1         -447.8      2.9285E-05  -81.60     -1.4928E-05  4.4783E-06 -3.5360E-06  0.5000      0.5000
         127   1         -423.6     -1.3217E-04  -81.60     -1.4121E-05  4.2363E-06 -3.5360E-06  0.5000      0.5000
         128   1         -399.4     -5.5537E-04  -81.60     -1.3314E-05  3.9942E-06 -3.5360E-06  0.5000      0.5000
         129   1         -375.2     -1.3818E-03  -81.60     -1.2507E-05  3.7521E-06 -3.5360E-06  0.5000      0.5000
         130   1         -351.0     -2.6987E-03  -81.60     -1.1700E-05  3.5100E-06 -3.5359E-06  0.5000      0.5000
         131   1         -326.8     -4.3717E-03  -81.60     -1.0893E-05  3.2678E-06 -3.5359E-06  0.5000      0.5000
         132   1         -302.6     -5.7455E-03  -81.60     -1.0086E-05  3.0257E-06 -3.5358E-06  0.5000      0.5000
         133   1         -278.4     -5.1620E-03  -81.59     -9.2791E-06  2.7836E-06 -3.5357E-06  0.5000      0.5000
         134   1         -254.2      4.2385E-04  -81.59     -8.4720E-06  2.5416E-06 -3.5357E-06  0.5000      0.5000
         135   1         -229.9      1.5884E-02  -81.60     -7.6651E-06  2.3000E-06 -3.5358E-06  0.5000      0.5000
         136   1         -205.7      4.6487E-02  -81.61     -6.8585E-06  2.0590E-06 -3.5364E-06  0.5000      0.5000
         137   1         -181.5      9.6806E-02  -81.64     -6.0526E-06  1.8187E-06 -3.5377E-06  0.5000      0.5000
         138   1         -157.4      0.1653      -81.70     -5.2476E-06  1.5793E-06 -3.5403E-06  0.5000      0.5000
         139   1         -133.3      0.2587      -81.79     -4.4444E-06  1.3412E-06 -3.5443E-06  0.5000      0.5000
         140   1         -109.2      0.3098      -81.87     -3.6436E-06  1.1025E-06 -3.5475E-06  0.5000      0.5000
         141   1         -85.35      0.4592      -81.98     -2.8497E-06  8.6885E-07 -3.5524E-06  0.5000      0.5000
         142   1         -62.12     -0.3540      -81.13     -2.0671E-06  6.0940E-07 -3.5157E-06  0.5000      0.5000
         143   1         -37.61      -2.520      -80.58     -1.2284E-06  2.9208E-07 -3.4918E-06  0.5000      0.5000
         144   1         -12.28      -4.413      -82.13     -3.6509E-07 -2.4329E-08 -3.5589E-06  0.5000      0.5000
         145   1         -741.9      -191.8      -19.87     -2.2812E-05  1.0255E-06 -8.6087E-07  0.5000      0.5000
[...]
       386      2.5961567E-04 -7.0462283E-03  4.2000000E+01  1.0000000E+00 
       387      2.6089310E-04 -7.3117844E-03  4.3000000E+01  1.0000000E+00 
       388      2.6194322E-04 -7.5784966E-03  4.4000000E+01  1.0000000E+00 
       389      2.6276167E-04 -7.8461439E-03  4.5000000E+01  1.0000000E+00 
       390      2.6334416E-04 -8.1145035E-03  4.6000000E+01  1.0000000E+00 
       391      2.6368809E-04 -8.3833527E-03  4.7000000E+01  1.0000000E+00 
       392      2.6379542E-04 -8.6524645E-03  4.8000000E+01  1.0000000E+00 
       393      0.0000000E+00  0.0000000E+00  0.0000000E+00  2.0000000E+00 
       394      1.8127278E-05 -4.5199956E-06  1.0000000E+00  2.0000000E+00 
       395      3.7550069E-05 -2.1473167E-05  2.0000000E+00  2.0000000E+00 
       396      5.8129844E-05 -5.0460505E-05  3.0000000E+00  2.0000000E+00 
       397      7.9148409E-05 -9.0797806E-05  4.0000000E+00  2.0000000E+00 
       398      1.0015586E-04 -1.4178143E-04  5.0000000E+00  2.0000000E+00 
       399      1.2043385E-04 -2.0263960E-04  6.0000000E+00  2.0000000E+00 
       400      1.3999195E-04 -2.7316472E-04  7.0000000E+00  2.0000000E+00 
       401      1.5887258E-04 -3.5310766E-04  8.0000000E+00  2.0000000E+00 
       402      1.7715947E-04 -4.4224703E-04  9.0000000E+00  2.0000000E+00 
       403      1.9492021E-04 -5.4035531E-04  1.0000000E+01  2.0000000E+00 
       404      2.1219478E-04 -6.4721017E-04  1.1000000E+01  2.0000000E+00 
       405      2.2900403E-04 -7.6258737E-04  1.2000000E+01  2.0000000E+00 
       406      2.4535622E-04 -8.8626091E-04  1.3000000E+01  2.0000000E+00 
       407      2.6125321E-04 -1.0180028E-03  1.4000000E+01  2.0000000E+00 
       408      2.7669404E-04 -1.1575835E-03  1.5000000E+01  2.0000000E+00 
       409      2.9167706E-04 -1.3047728E-03  1.6000000E+01  2.0000000E+00 
       410      3.0620080E-04 -1.4593401E-03  1.7000000E+01  2.0000000E+00 
       411      3.2026424E-04 -1.6210547E-03  1.8000000E+01  2.0000000E+00 
       412      3.3386682E-04 -1.7896858E-03  1.9000000E+01  2.0000000E+00 
       413      3.4700827E-04 -1.9650029E-03  2.0000000E+01  2.0000000E+00 
       414      3.5968851E-04 -2.1467752E-03  2.1000000E+01  2.0000000E+00 
       415      3.7190755E-04 -2.3347723E-03  2.2000000E+01  2.0000000E+00 
       416      3.8366542E-04 -2.5287635E-03  2.3000000E+01  2.0000000E+00 
       417      3.9496214E-04 -2.7285183E-03  2.4000000E+01  2.0000000E+00 
       418      4.0579775E-04 -2.9338062E-03  2.5000000E+01  2.0000000E+00 
       419      4.1617227E-04 -3.1443966E-03  2.6000000E+01  2.0000000E+00 
       420      4.2608569E-04 -3.3600591E-03  2.7000000E+01  2.0000000E+00 
       421      4.3553803E-04 -3.5805629E-03  2.8000000E+01  2.0000000E+00 
       422      4.4452929E-04 -3.8056776E-03  2.9000000E+01  2.0000000E+00 
       423      4.5305947E-04 -4.0351727E-03  3.0000000E+01  2.0000000E+00 
       424      4.6112855E-04 -4.2688177E-03  3.1000000E+01  2.0000000E+00 
       425      4.6873655E-04 -4.5063818E-03  3.2000000E+01  2.0000000E+00 
       426      4.7588344E-04 -4.7476348E-03  3.3000000E+01  2.0000000E+00 
       427      4.8256919E-04 -4.9923459E-03  3.4000000E+01  2.0000000E+00 
       428      4.8879376E-04 -5.2402846E-03  3.5000000E+01  2.0000000E+00 
       429      4.9455708E-04 -5.4912205E-03  3.6000000E+01  2.0000000E+00 
       430      4.9985908E-04 -5.7449229E-03  3.7000000E+01  2.0000000E+00 
       431      5.0469978E-04 -6.0011612E-03  3.8000000E+01  2.0000000E+00 
       432      5.0907933E-04 -6.2597048E-03  3.9000000E+01  2.0000000E+00 
       433      5.1299825E-04 -6.5203229E-03  4.0000000E+01  2.0000000E+00 
       434      5.1645779E-04 -6.7827848E-03  4.1000000E+01  2.0000000E+00 
       435      5.1946033E-04 -7.0468594E-03  4.2000000E+01  2.0000000E+00 
       436      5.2200794E-04 -7.3123161E-03  4.3000000E+01  2.0000000E+00 
       437      5.2410682E-04 -7.5789198E-03  4.4000000E+01  2.0000000E+00 
       438      5.2574608E-04 -7.8464480E-03  4.5000000E+01  2.0000000E+00 
       439      5.2691351E-04 -8.1146864E-03  4.6000000E+01  2.0000000E+00 
       440      5.2760397E-04 -8.3834134E-03  4.7000000E+01  2.0000000E+00 
       441      5.2781725E-04 -8.6524104E-03  4.8000000E+01  2.0000000E+00 
       442      0.0000000E+00  0.0000000E+00  0.0000000E+00  3.0000000E+00 
       443      2.7496513E-05 -6.5709746E-06  1.0000000E+00  3.0000000E+00 
       444      5.7400287E-05 -2.5738332E-05  2.0000000E+00  3.0000000E+00 
       445      8.8644610E-05 -5.6684641E-05  3.0000000E+00  3.0000000E+00 
       446      1.2067494E-04 -9.8435270E-05  4.0000000E+00  3.0000000E+00 
       447      1.5163303E-04 -1.4958118E-04  5.0000000E+00  3.0000000E+00 
       448      1.8164862E-04 -2.1032372E-04  6.0000000E+00  3.0000000E+00 
       449      2.1070893E-04 -2.8057261E-04  7.0000000E+00  3.0000000E+00 
       450      2.3889673E-04 -3.6022214E-04  8.0000000E+00  3.0000000E+00 
       451      2.6628092E-04 -4.4909095E-04  9.0000000E+00  3.0000000E+00 
       452      2.9291558E-04 -5.4696539E-04  1.0000000E+01  3.0000000E+00 
       453      3.1883655E-04 -6.5361513E-04  1.1000000E+01  3.0000000E+00 
       454      3.4406215E-04 -7.6880615E-04  1.2000000E+01  3.0000000E+00 
       455      3.6860002E-04 -8.9230372E-04  1.3000000E+01  3.0000000E+00 
       456      3.9245174E-04 -1.0238740E-03  1.4000000E+01  3.0000000E+00 
       457      4.1561640E-04 -1.1632844E-03  1.5000000E+01  3.0000000E+00 
       458      4.3809241E-04 -1.3103030E-03  1.6000000E+01  3.0000000E+00 
       459      4.5987841E-04 -1.4646990E-03  1.7000000E+01  3.0000000E+00 
       460      4.8097348E-04 -1.6262416E-03  1.8000000E+01  3.0000000E+00 
       461      5.0137711E-04 -1.7947002E-03  1.9000000E+01  3.0000000E+00 
       462      5.2108907E-04 -1.9698445E-03  2.0000000E+01  3.0000000E+00 
       463      5.4010927E-04 -2.1514439E-03  2.1000000E+01  3.0000000E+00 
       464      5.5843773E-04 -2.3392680E-03  2.2000000E+01  3.0000000E+00 
       465      5.7607449E-04 -2.5330863E-03  2.3000000E+01  3.0000000E+00 
       466      5.9301956E-04 -2.7326682E-03  2.4000000E+01  3.0000000E+00 
       467      6.0927298E-04 -2.9377831E-03  2.5000000E+01  3.0000000E+00 
       468      6.2483475E-04 -3.1482006E-03  2.6000000E+01  3.0000000E+00 
       469      6.3970490E-04 -3.3636901E-03  2.7000000E+01  3.0000000E+00 
       470      6.5388341E-04 -3.5840211E-03  2.8000000E+01  3.0000000E+00 
       471      6.6737029E-04 -3.8089629E-03  2.9000000E+01  3.0000000E+00 
       472      6.8016554E-04 -4.0382851E-03  3.0000000E+01  3.0000000E+00 
       473      6.9226917E-04 -4.2717571E-03  3.1000000E+01  3.0000000E+00 
       474      7.0368116E-04 -4.5091484E-03  3.2000000E+01  3.0000000E+00 
       475      7.1440150E-04 -4.7502283E-03  3.3000000E+01  3.0000000E+00 
       476      7.2443016E-04 -4.9947664E-03  3.4000000E+01  3.0000000E+00 
       477      7.3376709E-04 -5.2425322E-03  3.5000000E+01  3.0000000E+00 
       478      7.4241225E-04 -5.4932951E-03  3.6000000E+01  3.0000000E+00 
       479      7.5036557E-04 -5.7468246E-03  3.7000000E+01  3.0000000E+00 
       480      7.5762705E-04 -6.0028902E-03  3.8000000E+01  3.0000000E+00 
       481      7.6419685E-04 -6.2612617E-03  3.9000000E+01  3.0000000E+00 
       482      7.7007544E-04 -6.5217087E-03  4.0000000E+01  3.0000000E+00 
       483      7.7526382E-04 -6.7840007E-03  4.1000000E+01  3.0000000E+00 
       484      7.7976345E-04 -7.0479070E-03  4.2000000E+01  3.0000000E+00 
       485      7.8357747E-04 -7.3131947E-03  4.3000000E+01  3.0000000E+00 
       486      7.8670696E-04 -7.5796316E-03  4.4000000E+01  3.0000000E+00 
       487      7.8916899E-04 -7.8469688E-03  4.5000000E+01  3.0000000E+00 
       488      7.9093244E-04 -8.1149929E-03  4.6000000E+01  3.0000000E+00 
       489      7.9197026E-04 -8.3835129E-03  4.7000000E+01  3.0000000E+00 
       490      7.9229146E-04 -8.6523080E-03  4.8000000E+01  3.0000000E+00 
       491      0.0000000E+00  0.0000000E+00  0.0000000E+00  4.0000000E+00 
       492      3.7839679E-05 -1.0032826E-05  1.0000000E+00  4.0000000E+00 
       493      7.8603252E-05 -3.2921670E-05  2.0000000E+00  4.0000000E+00 
       494      1.2221266E-04 -6.7138841E-05  3.0000000E+00  4.0000000E+00 
       495      1.6382655E-04 -1.0916821E-04  4.0000000E+00  4.0000000E+00 
       496      2.0436375E-04 -1.6033243E-04  5.0000000E+00  4.0000000E+00 
       497      2.4378816E-04 -2.2081512E-04  6.0000000E+00  4.0000000E+00 
       498      2.8219244E-04 -2.9074404E-04  7.0000000E+00  4.0000000E+00 
       499      3.1960841E-04 -3.7006026E-04  8.0000000E+00  4.0000000E+00 
       500      3.5606111E-04 -4.5861353E-04  9.0000000E+00  4.0000000E+00 
       501      3.9156903E-04 -5.5619714E-04  1.0000000E+01  4.0000000E+00 
       502      4.2614496E-04 -6.6257859E-04  1.1000000E+01  4.0000000E+00 
       503      4.5979683E-04 -7.7751638E-04  1.2000000E+01  4.0000000E+00 
       504      4.9252793E-04 -9.0076915E-04  1.3000000E+01  4.0000000E+00 
       505      5.2433911E-04 -1.0320984E-03  1.4000000E+01  4.0000000E+00 
       506      5.5523000E-04 -1.1712686E-03  1.5000000E+01  4.0000000E+00 
       507      5.8519995E-04 -1.3180471E-03  1.6000000E+01  4.0000000E+00 
       508      6.1424840E-04 -1.4722022E-03  1.7000000E+01  4.0000000E+00 
       509      6.4237497E-04 -1.6335034E-03  1.8000000E+01  4.0000000E+00 
       510      6.6957943E-04 -1.8017204E-03  1.9000000E+01  4.0000000E+00 
       511      6.9586171E-04 -1.9766227E-03  2.0000000E+01  4.0000000E+00 
       512      7.2122175E-04 -2.1579800E-03  2.1000000E+01  4.0000000E+00 
       513      7.4565957E-04 -2.3455620E-03  2.2000000E+01  4.0000000E+00 
       514      7.6917518E-04 -2.5391382E-03  2.3000000E+01  4.0000000E+00 
       515      7.9176860E-04 -2.7384779E-03  2.4000000E+01  4.0000000E+00 
       516      8.1343982E-04 -2.9433508E-03  2.5000000E+01  4.0000000E+00 
       517      8.3418886E-04 -3.1535262E-03  2.6000000E+01  4.0000000E+00 
       518      8.5401573E-04 -3.3687737E-03  2.7000000E+01  4.0000000E+00 
       519      8.7292041E-04 -3.5888625E-03  2.8000000E+01  4.0000000E+00 
       520      8.9090292E-04 -3.8135623E-03  2.9000000E+01  4.0000000E+00 
       521      9.0796325E-04 -4.0426424E-03  3.0000000E+01  4.0000000E+00 
       522      9.2410140E-04 -4.2758723E-03  3.1000000E+01  4.0000000E+00 
       523      9.3931737E-04 -4.5130215E-03  3.2000000E+01  4.0000000E+00 
       524      9.5361116E-04 -4.7538593E-03  3.3000000E+01  4.0000000E+00 
       525      9.6698274E-04 -4.9981553E-03  3.4000000E+01  4.0000000E+00 
       526      9.7943212E-04 -5.2456789E-03  3.5000000E+01  4.0000000E+00 
       527      9.9095925E-04 -5.4961997E-03  3.6000000E+01  4.0000000E+00 
       528      1.0015641E-03 -5.7494871E-03  3.7000000E+01  4.0000000E+00 
       529      1.0112467E-03 -6.0053110E-03  3.8000000E+01  4.0000000E+00 
       530      1.0200072E-03 -6.2634411E-03  3.9000000E+01  4.0000000E+00 
       531      1.0278456E-03 -6.5236473E-03  4.0000000E+01  4.0000000E+00 
       532      1.0347624E-03 -6.7856995E-03  4.1000000E+01  4.0000000E+00 
       533      1.0407579E-03 -7.0493668E-03  4.2000000E+01  4.0000000E+00 
       534      1.0458327E-03 -7.3144173E-03  4.3000000E+01  4.0000000E+00 
       535      1.0499904E-03 -7.5806140E-03  4.4000000E+01  4.0000000E+00 
       536      1.0532279E-03 -7.8477241E-03  4.5000000E+01  4.0000000E+00 
       537      1.0555986E-03 -8.1154564E-03  4.6000000E+01  4.0000000E+00 
       538      1.0570176E-03 -8.3836335E-03  4.7000000E+01  4.0000000E+00 
       539      1.0574266E-03 -8.6521387E-03  4.8000000E+01  4.0000000E+00 
       540      0.0000000E+00  0.0000000E+00  0.0000000E+00  5.0000000E+00 
       541      4.9095789E-05 -1.6273629E-05  1.0000000E+00  5.0000000E+00 
       542      1.0604462E-04 -4.6719243E-05  2.0000000E+00  5.0000000E+00 
       543      1.5784267E-04 -8.0747753E-05  3.0000000E+00  5.0000000E+00 
       544      2.0859125E-04 -1.2289218E-04  4.0000000E+00  5.0000000E+00 
       545      2.5823253E-04 -1.7381429E-04  5.0000000E+00  5.0000000E+00 
       546      3.0691239E-04 -2.3400656E-04  6.0000000E+00  5.0000000E+00 
       547      3.5458818E-04 -3.0360571E-04  7.0000000E+00  5.0000000E+00 
       548      4.0120899E-04 -3.8258093E-04  8.0000000E+00  5.0000000E+00 
       549      4.4672902E-04 -4.7079369E-04  9.0000000E+00  5.0000000E+00 
       550      4.9111778E-04 -5.6804405E-04  1.0000000E+01  5.0000000E+00 
       551      5.3435885E-04 -6.7410072E-04  1.1000000E+01  5.0000000E+00 
       552      5.7644509E-04 -7.8872074E-04  1.2000000E+01  5.0000000E+00 
       553      6.1737471E-04 -9.1166001E-04  1.3000000E+01  5.0000000E+00 
       554      6.5714810E-04 -1.0426778E-03  1.4000000E+01  5.0000000E+00 
       555      6.9576634E-04 -1.1815375E-03  1.5000000E+01  5.0000000E+00 
       556      7.3323047E-04 -1.3280055E-03  1.6000000E+01  5.0000000E+00 
       557      7.6954124E-04 -1.4818500E-03  1.7000000E+01  5.0000000E+00 
       558      8.0469907E-04 -1.6428403E-03  1.8000000E+01  5.0000000E+00 
       559      8.3870417E-04 -1.8107462E-03  1.9000000E+01  5.0000000E+00 
       560      8.7155663E-04 -1.9853373E-03  2.0000000E+01  5.0000000E+00 
       561      9.0325644E-04 -2.1663835E-03  2.1000000E+01  5.0000000E+00 
       562      9.3380359E-04 -2.3536542E-03  2.2000000E+01  5.0000000E+00 
       563      9.6319805E-04 -2.5469191E-03  2.3000000E+01  5.0000000E+00 
       564      9.9143980E-04 -2.7459476E-03  2.4000000E+01  5.0000000E+00 
       565      1.0185288E-03 -2.9505092E-03  2.5000000E+01  5.0000000E+00 
       566      1.0444651E-03 -3.1603734E-03  2.6000000E+01  5.0000000E+00 
       567      1.0692487E-03 -3.3753096E-03  2.7000000E+01  5.0000000E+00 
       568      1.0928796E-03 -3.5950872E-03  2.8000000E+01  5.0000000E+00 
       569      1.1153577E-03 -3.8194758E-03  2.9000000E+01  5.0000000E+00 
       570      1.1366831E-03 -4.0482447E-03  3.0000000E+01  5.0000000E+00 
       571      1.1568558E-03 -4.2811633E-03  3.1000000E+01  5.0000000E+00 
       572      1.1758757E-03 -4.5180012E-03  3.2000000E+01  5.0000000E+00 
       573      1.1937430E-03 -4.7585278E-03  3.3000000E+01  5.0000000E+00 
       574      1.2104575E-03 -5.0025126E-03  3.4000000E+01  5.0000000E+00 
       575      1.2260193E-03 -5.2497249E-03  3.5000000E+01  5.0000000E+00 
       576      1.2404285E-03 -5.4999344E-03  3.6000000E+01  5.0000000E+00 
       577      1.2536851E-03 -5.7529106E-03  3.7000000E+01  5.0000000E+00 
       578      1.2657890E-03 -6.0084234E-03  3.8000000E+01  5.0000000E+00 
       579      1.2767405E-03 -6.2662427E-03  3.9000000E+01  5.0000000E+00 
       580      1.2865391E-03 -6.5261383E-03  4.0000000E+01  5.0000000E+00 
       581      1.2951846E-03 -6.7878801E-03  4.1000000E+01  5.0000000E+00 
       582      1.3026759E-03 -7.0512374E-03  4.2000000E+01  5.0000000E+00 
       583      1.3090118E-03 -7.3159777E-03  4.3000000E+01  5.0000000E+00 
       584      1.3141892E-03 -7.5818673E-03  4.4000000E+01  5.0000000E+00 
       585      1.3182112E-03 -7.8486607E-03  4.5000000E+01  5.0000000E+00 
       586      1.3210540E-03 -8.1161300E-03  4.6000000E+01  5.0000000E+00 
       587      1.3228674E-03 -8.3838338E-03  4.7000000E+01  5.0000000E+00 
       588      1.3234715E-03 -8.6517955E-03  4.8000000E+01  5.0000000E+00 
       589      0.0000000E+00  0.0000000E+00  0.0000000E+00  6.0000000E+00 
       590      7.6201648E-05 -3.4456617E-05  1.0000000E+00  6.0000000E+00 
       591      1.3536472E-04 -6.3236475E-05  2.0000000E+00  6.0000000E+00 
       592      1.9522076E-04 -9.7326476E-05  3.0000000E+00  6.0000000E+00 
       593      2.5438163E-04 -1.3927735E-04  4.0000000E+00  6.0000000E+00 
       594      3.1306924E-04 -1.8997637E-04  5.0000000E+00  6.0000000E+00 
       595      3.7101572E-04 -2.4989391E-04  6.0000000E+00  6.0000000E+00 
       596      4.2801447E-04 -3.1917461E-04  7.0000000E+00  6.0000000E+00 
       597      4.8388840E-04 -3.9779982E-04  8.0000000E+00  6.0000000E+00 
       598      5.3851152E-04 -4.8564262E-04  9.0000000E+00  6.0000000E+00 
       599      5.9180392E-04 -5.8251269E-04  1.0000000E+01  6.0000000E+00 
       600      6.4372224E-04 -6.8818529E-04  1.1000000E+01  6.0000000E+00 
       601      6.9424820E-04 -8.0242089E-04  1.2000000E+01  6.0000000E+00 
       602      7.4337763E-04 -9.2497679E-04  1.3000000E+01  6.0000000E+00 
       603      7.9111276E-04 -1.0556124E-03  1.4000000E+01  6.0000000E+00 
       604      8.3745739E-04 -1.1940908E-03  1.5000000E+01  6.0000000E+00 
       605      8.8241482E-04 -1.3401780E-03  1.6000000E+01  6.0000000E+00 
       606      9.2598729E-04 -1.4936420E-03  1.7000000E+01  6.0000000E+00 
       607      9.6817604E-04 -1.6542520E-03  1.8000000E+01  6.0000000E+00 
       608      1.0089816E-03 -1.8217776E-03  1.9000000E+01  6.0000000E+00 
       609      1.0484042E-03 -1.9959884E-03  2.0000000E+01  6.0000000E+00 
       610      1.0864438E-03 -2.1766542E-03  2.1000000E+01  6.0000000E+00 
       611      1.1231003E-03 -2.3635446E-03  2.2000000E+01  6.0000000E+00 
       612      1.1583736E-03 -2.5564291E-03  2.3000000E+01  6.0000000E+00 
       613      1.1922637E-03 -2.7550772E-03  2.4000000E+01  6.0000000E+00 
       614      1.2247706E-03 -2.9592584E-03  2.5000000E+01  6.0000000E+00 
       615      1.2558942E-03 -3.1687422E-03  2.6000000E+01  6.0000000E+00 
       616      1.2856345E-03 -3.3832980E-03  2.7000000E+01  6.0000000E+00 
       617      1.3139915E-03 -3.6026952E-03  2.8000000E+01  6.0000000E+00 
       618      1.3409653E-03 -3.8267034E-03  2.9000000E+01  6.0000000E+00 
       619      1.3665557E-03 -4.0550918E-03  3.0000000E+01  6.0000000E+00 
       620      1.3907629E-03 -4.2876301E-03  3.1000000E+01  6.0000000E+00 
       621      1.4135868E-03 -4.5240876E-03  3.2000000E+01  6.0000000E+00 
       622      1.4350275E-03 -4.7642338E-03  3.3000000E+01  6.0000000E+00 
       623      1.4550849E-03 -5.0078382E-03  3.4000000E+01  6.0000000E+00 
       624      1.4737591E-03 -5.2546701E-03  3.5000000E+01  6.0000000E+00 
       625      1.4910503E-03 -5.5044992E-03  3.6000000E+01  6.0000000E+00 
       626      1.5069586E-03 -5.7570952E-03  3.7000000E+01  6.0000000E+00 
       627      1.5214841E-03 -6.0122277E-03  3.8000000E+01  6.0000000E+00 
       628      1.5346268E-03 -6.2696667E-03  3.9000000E+01  6.0000000E+00 
       629      1.5463863E-03 -6.5291820E-03  4.0000000E+01  6.0000000E+00 
       630      1.5567616E-03 -6.7905433E-03  4.1000000E+01  6.0000000E+00 
       631      1.5657506E-03 -7.0535195E-03  4.2000000E+01  6.0000000E+00 
       632      1.5733497E-03 -7.3178780E-03  4.3000000E+01  6.0000000E+00 
       633      1.5795531E-03 -7.5833837E-03  4.4000000E+01  6.0000000E+00 
       634      1.5843468E-03 -7.8497966E-03  4.5000000E+01  6.0000000E+00 
       635      1.5877257E-03 -8.1168526E-03  4.6000000E+01  6.0000000E+00 
       636      1.5895591E-03 -8.3843258E-03  4.7000000E+01  6.0000000E+00 
       637      1.5898948E-03 -8.6509194E-03  4.8000000E+01  6.0000000E+00 

 MAXIMUM         1.5899E-03   0.000       48.00       6.000    
 AT NODE               637           1          49         589

 MINIMUM        -1.5899E-03 -8.6525E-03   0.000      -6.000    
 AT NODE                49         343           1           1


          THE ANALYSIS HAS BEEN COMPLETED



                              ANALYSIS COMPLETE



     JOB TIME SUMMARY
       USER TIME (SEC)      =  0.10000    
       SYSTEM TIME (SEC)    =  0.20000    
       TOTAL CPU TIME (SEC) =  0.30000    
       WALLCLOCK TIME (SEC) =          0
