1

   Abaqus 3DEXPERIENCE R2018x                                  Date 12-May-2020   Time 13:25:41
   For use by Supplied by Team-SolidSQUAD under license from Dassault Systemes or its subsidiary.



                         The Abaqus Software is a product of:

                           Dassault Systemes SIMULIA Corp.
                           1301 Atwood Avenue, Suite 101W
                              Johnston, RI 02919, USA
 


                   The Abaqus Software is available only under license
                   from Dassault Systemes or its subsidiary and may be
                   used or reproduced only in accordance with the terms
                   of such license.
 
                          On machine DESKTOP-NVH18H4 
                          you are authorized to run
                          Abaqus/Standard until 31-Dec-2055

                          Your site id is:  


 
                    For assistance or any other information you may
                    obtain contact information for your local office
                    from the world wide web at:

                      http://www.3ds.com/products/simulia/locations/

 
                * * * * * * * * * * * * * * * * * * * * * * * * * * * * * * 
                *                                                         * 
                *                   *****************                     * 
                *                   *  N O T I C E  *                     * 
                *                   *****************                     * 
                *                                                         * 
                *                                                         * 
                *               Abaqus 3DEXPERIENCE R2018x                * 
                *                                                         * 
                *          BUILD ID: 2017_11_07-22.51.41 127140           * 
                *                                                         * 
                *                                                         * 
                *  Please make sure you are using                         * 
                *  release 3DEXPERIENCE R2018x manuals                    * 
                *  plus the notes accompanying this release.              * 
                *                                                         * 
                *                                                         * 
                *                                                         * 
                *                                                         * 
                * * * * * * * * * * * * * * * * * * * * * * * * * * * * * * 


 



     PROCESSING PART, INSTANCE, AND ASSEMBLY INFORMATION
   *******************************************************


     END PROCESSING PART, INSTANCE, AND ASSEMBLY INFORMATION
   ***********************************************************

1

   Abaqus 3DEXPERIENCE R2018x                                  Date 12-May-2020   Time 13:25:41
   For use by Supplied by Team-SolidSQUAD under license from Dassault Systemes or its subsidiary.

                                                                                     

                                             A B A Q U S   I N P U T   E C H O


                    20*HEADING      
                    Plane Stress Linear Static analysis of Beam under Parabolic Loading     
                    *PREPRINT, ECHO=YES, HISTORY=NO, MODEL=NO       
                    *NODE   
     LINE     5     1,          24.,          -6.   
                    2,           0.,          -6.   
                    3,          48.,          -6.   
                    4,          48.,           0.   
                    5,          48.,           6.   
     LINE    10     6,          24.,           6.   
                    7,           0.,           6.   
                    8,           0.,           0.   
                    9,   22.1538467,          -6.   
                    10,   20.3076916,          -6.  
     LINE    15     11,   18.4615383,          -6.  
                    12,   16.6153851,          -6.  
                    13,   14.7692308,          -6.  
                    14,   12.9230766,          -6.  
                    15,   11.0769234,          -6.  
     LINE    20     16,   9.23076916,          -6.  
                    17,   7.38461542,          -6.  
                    18,   5.53846169,          -6.  
                    19,   3.69230771,          -6.  
                    20,   1.84615386,          -6.  
     LINE    25     21,   45.5999985,          -6.  
                    22,   43.2000008,          -6.  
                    23,   40.7999992,          -6.  
                    24,   38.4000015,          -6.  
                    25,          36.,          -6.  
     LINE    30     26,   33.5999985,          -6.  
                    27,   31.2000008,          -6.  
                    28,   28.7999992,          -6.  
                    29,   26.3999996,          -6.  
                    30,          48.,          -1.  
     LINE    35     31,          48.,          -2.  
                    32,          48.,          -3.  
                    33,          48.,          -4.  
                    34,          48.,          -5.  
                    35,          48.,           5.  
     LINE    40     36,          48.,           4.  
                    37,          48.,           3.  
                    38,          48.,           2.  
                    39,          48.,           1.  
                    40,    26.181818,           6.  
     LINE    45     41,    28.363636,           6.  
                    42,    30.545454,           6.  
                    43,    32.727272,           6.  
                    44,   34.9090919,           6.  
                    45,   37.0909081,           6.  
     LINE    50     46,    39.272728,           6.  
                    47,   41.4545441,           6.  
                    48,    43.636364,           6.  
                    49,   45.8181801,           6.  
                    50,   1.84615386,           6.  
     LINE    55     51,   3.69230771,           6.  
                    52,   5.53846169,           6.  
                    53,   7.38461542,           6.  
                    54,   9.23076916,           6.  
                    55,   11.0769234,           6.  
     LINE    60     56,   12.9230766,           6.  
                    57,   14.7692308,           6.  
                    58,   16.6153851,           6.  
                    59,   18.4615383,           6.  
                    60,   20.3076916,           6.  
     LINE    65     61,   22.1538467,           6.  
                    62,           0.,          1.5  
                    63,           0.,           3.  
                    64,           0.,          4.5  
                    65,           0.,  -5.14285707  
     LINE    70     66,           0.,  -4.28571415  
                    67,           0.,  -3.42857146  
                    68,           0.,  -2.57142854  
                    69,           0.,  -1.71428573  
                    70,           0., -0.857142866  
     LINE    75     71,   1.15471172, -0.769907534  
                    72,   1.18933868,  -1.64960265  
                    73,   1.16695607,  -2.51142907  
                    74,   1.70509911,  -5.12168074  
                    75,   46.9918861, -0.724257112  
     LINE    80     76,   46.9621353,  -1.70379579  
                    77,   46.6804771,   -2.5985465  
                    78,   46.2614708,  -3.53584027  
                    79,    46.661808,   2.76825595  
                    80,   46.9487495,   1.67076492  
     LINE    85     81,   47.3455467,  0.983052373  
                    82,   1.14059734,  0.226775154  
                    83,   1.34826791,   1.47081959  
                    84,   1.58592284,   2.90358686  
                    85,   1.31374097,   -3.3657937  
     LINE    90     86,   2.48261786,  -3.08692813  
                    87,    2.0837357,  -2.43072271  
                    88,   46.5883064,   3.95518756  
                    89,    46.198143,  -1.40156436  
                    90,   46.0395393, -0.520430028  
     LINE    95     91,   45.4703598,   2.46462989  
                    92,    45.996624,  0.891879439  
                    93,   45.6825027,   -1.8681736  
                    94,   3.42982292,  -4.95294189  
                    95,   2.84883523,   1.05142498  
     LINE   100     96,   43.7436829, 0.0762652531  
                    97,   45.8053246,  -4.64780807  
                    98,   2.07968545,  0.187369674  
                    99,   3.40685368,  -2.46348786  
                    100,   4.19456863,   1.01882398 
     LINE   105     101,    3.4126792,  -1.15706265 
                    102,   44.2560997,   2.03874373 
                    103,   43.5833473,  -3.76911616 
                    104,   3.21083975,    2.6146183 
                    105,   24.0378742,  -4.27980947 
     LINE   110     106,   3.60376048,   4.19653606 
                    107,   5.70971918,   3.71425867 
                    108,   14.5372896,  -4.40597391 
                    109,   24.3696632,   4.14756918 
                    110,   22.0489655,  -4.16530514 
     LINE   115     111,   20.0626698,  -4.12530708 
                    112,   18.1735764,  -4.30213451 
                    113,   16.3346329,  -4.42991543 
                    114,   12.7277126,  -4.32752132 
                    115,   10.8690472,  -4.29395247 
     LINE   120     116,   9.54095459,   4.31499243 
                    117,   7.71570015,   4.15922642 
                    118,   11.3369684,      4.34129 
                    119,   13.1489792,   4.29487658 
                    120,   14.9879618,   4.25610971 
     LINE   125     121,   16.8280811,   4.27773237 
                    122,   18.6810265,   4.30804729 
                    123,   20.5324516,   4.29265118 
                    124,   22.4129829,   4.22530508 
                    125,   9.04329681,  -4.46845436 
     LINE   130     126,   7.24097157,  -4.59582472 
                    127,   45.2437592,   4.06437063 
                    128,   5.29351711,  -4.51656961 
                    129,   43.1170731,   1.27969766 
                    130,   5.21765423,  -2.45291591 
     LINE   135     131,     4.923738, -0.246287599 
                    132,   11.5462837,   2.69226122 
                    133,   13.3132381,    2.5609324 
                    134,   17.0553627,    2.6010797 
                    135,   10.5818424,  -2.31054854 
     LINE   140     136,   9.87367249,   2.69480944 
                    137,   8.71716309,  -2.95863295 
                    138,   8.29813671,   2.50810027 
                    139,   22.0438976,  -2.42982817 
                    140,   15.2038574,   2.46492147 
     LINE   145     141,    12.686162,  -2.61796904 
                    142,   6.92114258,   2.01691818 
                    143,   14.4528723,  -2.84758139 
                    144,   16.0951519,  -2.98114204 
                    145,    17.775898,  -2.71152568 
     LINE   150     146,   19.7438717,  -2.12975335 
                    147,   18.8786812,   2.71520591 
                    148,   20.6745586,   2.67414045 
                    149,   22.5280266,   2.53235722 
                    150,   24.0281944,  -2.60430694 
     LINE   155     151,   45.1435547, -0.770950496 
                    152,    26.226099,   -4.3246851 
                    153,   6.54364634,  -1.49504578 
                    154,   43.3895798,   3.81868029 
                    155,   5.95330191,  0.958305776 
     LINE   160     156,   22.2727375, -0.752500057 
                    157,    20.705513,   1.12463248 
                    158,   4.77032757,   2.08858705 
                    159,   7.09496069,  -3.16560793 
                    160,   13.3237867,  0.824318647 
     LINE   165     161,   14.6661968,  -1.26120949 
                    162,   11.6089277,   1.06553733 
                    163,   15.4812136,  0.444617659 
                    164,   13.0034304, -0.913022995 
                    165,   10.1083193,   1.17554796 
     LINE   170     166,   16.9024982,  -1.14805496 
                    167,   20.5070248, -0.444869012 
                    168,   18.2779942, -0.560998261 
                    169,   8.79130268,  0.999536872 
                    170,   19.0631676,   1.26628578 
     LINE   175     171,   17.4118996,   1.00574994 
                    172,    9.0160656, -0.692067564 
                    173,   24.5360584,   2.31643438 
                    174,   25.9973812,  -2.63781881 
                    175,   32.9380569,   4.10676193 
     LINE   180     176,   35.0647202,   4.10607815 
                    177,   37.1979904,   4.06460428 
                    178,   41.2845535,   4.07762766 
                    179,   28.6368656,   4.06919813 
                    180,    30.803051,   4.08627081 
     LINE   185     181,   26.4757462,   4.08292484 
                    182,    39.275547,   4.02035904 
                    183,   28.4391155,   -4.2291646 
                    184,   7.24345541, -0.0934314504
                    185,   10.1573639, -0.0536052585
     LINE   190     186,    7.6794343,  0.925713122 
                    187,   11.3565378,  -0.58447516 
                    188,   24.1153393, -0.954343438 
                    189,    22.474081,  0.899853289 
                    190,   26.7187958,   2.07353282 
     LINE   195     191,   41.2313576,   2.26313114 
                    192,   27.8883762,  -2.29937315 
                    193,   35.2265167,   2.22602892 
                    194,   28.9513626,   2.06009889 
                    195,   33.2144508,   2.19991708 
     LINE   200     196,   31.1324501,    2.1262095 
                    197,   39.3735237,   1.75687599 
                    198,   37.2574997,   2.12000537 
                    199,   41.8421669,  0.377017289 
                    200,    25.700983,   -1.2462244 
     LINE   205     201,   33.6361275,  0.227464408 
                    202,   31.5924168,  0.114659078 
                    203,   35.4363251,  0.372143626 
                    204,   38.6951408, -0.212584257 
                    205,   37.1298332,  0.338499844 
     LINE   210     206,   24.4492378,  0.608225465 
                    207,   26.8701057, -0.109000869 
                    208,   37.0638199,  -1.05041969 
                    209,   32.2351952,  -1.95981443 
                    210,   30.0342922,  -2.07828164 
     LINE   215     211,   38.2723503,   -1.8874563 
                    212,   35.9936562,  -1.52551293 
                    213,   39.2906456,  -3.96106219 
                    214,   37.4306641,  -3.61141229 
                    215,   39.8133469,  -2.65508747 
     LINE   220     216,   41.6543655,  -1.55913353 
                    217,   35.2192078,  -3.88925052 
                    218,   30.6967144,  -4.11705494 
                    219,   34.3335381,  -1.83621228 
                    220,   32.9693756,  -4.02386856 
     LINE   225     221,   41.5317535,  -3.50903654 
                    222,   40.1613083,  -1.02874839 
                    223,   43.0122452,  -1.72842014 
                    224,    42.886528, -0.371882319 
                    225,     1.515028,  -4.23228884 
     LINE   230     226,   1.77032602,    4.4197607 
                    227,   46.7637329,   4.94695044 
                    228,   2.95225072,  -3.95253444 
                    229,   2.48985338,  -1.65240836 
                    230,   2.29765797, -0.619828939 
     LINE   235     231,   44.8781357,  -2.62172723 
                    232,   44.1659203,  -1.27733099 
                    233,   42.5287743,   2.42520165 
                    234,   47.0718536,  0.286230564 
                    235,   3.38102841, -0.254906237 
     LINE   240     236,   40.5307961,  0.321657956 
                    237,   4.21930265,  -3.33898902 
                    238,   5.86547136,  -3.36347914 
                    239,   44.7938347,  0.565904498 
                    240,    29.371067, 0.0207725577 
     LINE   245     241,   4.27037811,  -1.60015929 
                    242,   8.17191792,  -1.70939541 
                    243,   19.2347851, 0.0800605416 
                    244,   15.9322166,   -1.7907095 
                    *USER ELEMENT, NODES=4, TYPE=U1, COORDINATES=2, PROPERTIES=2, VARIABLES=8       
     LINE   250       1, 2  
                    *ELEMENT, TYPE=U1, ELSET=EALL   
                    1, 228, 225,  74,  94   
                    2, 119,  56,  55, 118   
                    3, 100,  95, 235, 131   
     LINE   255     4, 239,  96, 232, 151   
                    5,  40, 181, 179,  41   
                    6, 199, 236, 222, 216   
                    7,   9,   1, 105, 110   
                    8,  59, 122, 123,  60   
     LINE   260     9,  10,   9, 110, 111   
                    10,  11,  10, 111, 112  
                    11, 108, 114,  14,  13  
                    12,  15,  14, 114, 115  
                    13,  52, 107, 117,  53  
     LINE   265     14,  51, 106, 107,  52  
                    15,  70,  69,  72,  71  
                    16,  73,  87, 229,  72  
                    17,  21,   3,  34,  97  
                    18,  89,  76,  75,  90  
     LINE   270     19,  81,  39,  38,  80  
                    20, 216, 222, 215, 221  
                    21, 175, 180, 196, 195  
                    22, 209, 219, 201, 202  
                    23, 194, 196, 180, 179  
     LINE   275     24, 202, 240, 210, 209  
                    25,   4, 234,  75,  30  
                    26,  76,  31,  30,  75  
                    27,  32,  77,  78,  33  
                    28,  33,  78,  97,  34  
     LINE   280     29,  88,  36,  35, 227  
                    30,  36,  88,  79,  37  
                    31, 227,  35,   5,  49  
                    32,  79,  88, 127,  91  
                    33,  37,  79,  80,  38  
     LINE   285     34, 181, 109, 173, 190  
                    35, 149, 173, 109, 124  
                    36,  41, 179, 180,  42  
                    37, 175,  43,  42, 180  
                    38,  43, 175, 176,  44  
     LINE   290     39, 177, 176, 193, 198  
                    40, 239, 151,  90,  92  
                    41,   7,  64, 226,  50  
                    42,  64,  63,  84, 226  
                    43,  95,  83,  82,  98  
     LINE   295     44, 235,  95,  98, 230  
                    45, 119, 118, 132, 133  
                    46,  54, 116, 118,  55  
                    47, 120,  57,  56, 119  
                    48, 148, 149, 124, 123  
     LINE   300     49, 122, 121, 134, 147  
                    50,  71,  82,   8,  70  
                    51,  82,  83,  62,   8  
                    52,  83,  84,  63,  62  
                    53,   2,  20,  74,  65  
     LINE   305     54,  94,  74,  20,  19  
                    55,  69,  68,  73,  72  
                    56,  86, 228, 237,  99  
                    57,  85,  73,  68,  67  
                    58,  67,  66, 225,  85  
     LINE   310     59,  73,  85,  86,  87  
                    60,  66,  65,  74, 225  
                    61,  85, 225, 228,  86  
                    62,  89,  90, 151,  93  
                    63,   4,  39,  81, 234  
     LINE   315     64,  97,  78, 231, 103  
                    65,  76,  89,  93,  77  
                    66,  31,  76,  77,  32  
                    67, 102,  91, 127, 154  
                    68,  96, 239, 102, 129  
     LINE   320     69,  82,  71, 230,  98  
                    70,  83,  95, 104,  84  
                    71,  50, 226, 106,  51  
                    72, 106, 226,  84, 104  
                    73, 115, 125,  16,  15  
     LINE   325     74, 153, 130, 238, 159  
                    75,  49, 127,  88, 227  
                    76, 234,  81,  80,  92  
                    77, 191, 197, 236, 199  
                    78,  91,  92,  80,  79  
     LINE   330     79,  92,  91, 102, 239  
                    80, 154, 178, 191, 233  
                    81, 234,  92,  90,  75  
                    82,  21,  97, 103,  22  
                    83,  78,  77,  93, 231  
     LINE   335     84, 126, 128,  18,  17  
                    85, 142, 107, 158, 155  
                    86,  23, 221, 215, 213  
                    87,  86,  99, 229,  87  
                    88, 136, 132, 118, 116  
     LINE   340     89,  19,  18, 128,  94  
                    90, 125, 126,  17,  16  
                    91,  53, 117, 116,  54  
                    92, 235, 101, 241, 131  
                    93, 165, 162, 132, 136  
     LINE   345     94, 178,  47,  46, 182  
                    95, 106, 104, 158, 107  
                    96,   1,  29, 152, 105  
                    97, 152, 183, 192, 174  
                    98,  13,  12, 113, 108  
     LINE   350     99, 109,   6,  61, 124  
                    100, 124,  61,  60, 123 
                    101, 150, 188, 156, 139 
                    102, 121,  58,  57, 120 
                    103, 147, 148, 123, 122 
     LINE   355     104, 133, 140, 120, 119 
                    105,  12,  11, 112, 113 
                    106, 143, 141, 114, 108 
                    107, 135, 137, 125, 115 
                    108, 185, 172, 135, 187 
     LINE   360     109, 142, 138, 117, 107 
                    110, 163, 161, 244, 166 
                    111, 139, 146, 111, 110 
                    112, 145, 144, 113, 112 
                    113,  58, 121, 122,  59 
     LINE   365     114, 157, 170, 243, 167 
                    115, 238, 130, 237, 128 
                    116, 128, 126, 159, 238 
                    117, 127,  49,  48, 154 
                    118,  45, 177, 182,  46 
     LINE   370     119, 191, 199, 129, 233 
                    120, 138, 136, 116, 117 
                    121, 141, 135, 115, 114 
                    122, 144, 143, 108, 113 
                    123, 140, 134, 121, 120 
     LINE   375     124, 112, 111, 146, 145 
                    125, 169, 165, 136, 138 
                    126, 153, 159, 137, 242 
                    127, 126, 125, 137, 159 
                    128, 186, 169, 138, 142 
     LINE   380     129, 110, 105, 150, 139 
                    130, 143, 161, 164, 141 
                    131, 162, 160, 133, 132 
                    132, 131, 155, 158, 100 
                    133, 160, 162, 187, 164 
     LINE   385     134, 160, 163, 140, 133 
                    135, 161, 163, 160, 164 
                    136, 139, 156, 167, 146 
                    137, 243, 170, 171, 168 
                    138, 163, 171, 134, 140 
     LINE   390     139, 150, 174, 200, 188 
                    140, 105, 152, 174, 150 
                    141, 151, 232, 231,  93 
                    142, 224,  96, 129, 199 
                    143,  29,  28, 183, 152 
     LINE   395     144, 130, 153, 131, 241 
                    145, 169, 172, 185, 165 
                    146,  48,  47, 178, 154 
                    147, 131, 153, 184, 155 
                    148, 186, 142, 155, 184 
     LINE   400     149, 156, 189, 157, 167 
                    150, 149, 148, 157, 189 
                    151, 148, 147, 170, 157 
                    152, 158, 104,  95, 100 
                    153, 144, 145, 166, 244 
     LINE   405     154, 187, 162, 165, 185 
                    155, 243, 168, 146, 167 
                    156, 244, 161, 143, 144 
                    157, 145, 146, 168, 166 
                    158, 166, 168, 171, 163 
     LINE   410     159, 169, 186, 184, 172 
                    160, 184, 153, 242, 172 
                    161, 171, 170, 147, 134 
                    162, 187, 135, 141, 164 
                    163,   6, 109, 181,  40 
     LINE   415     164, 190, 194, 179, 181 
                    165, 201, 203, 193, 195 
                    166, 208, 211, 204, 205 
                    167,  44, 176, 177,  45 
                    168, 204, 197, 198, 205 
     LINE   420     169, 209, 210, 218, 220 
                    170, 174, 192, 207, 200 
                    171, 189, 156, 188, 206 
                    172, 173, 149, 189, 206 
                    173, 240, 207, 192, 210 
     LINE   425     174, 182, 197, 191, 178 
                    175, 196, 194, 240, 202 
                    176, 176, 175, 195, 193 
                    177, 206, 207, 190, 173 
                    178, 213, 214,  24,  23 
     LINE   430     179, 202, 201, 195, 196 
                    180, 198, 197, 182, 177 
                    181, 205, 198, 193, 203 
                    182, 223, 216, 221, 103 
                    183, 224, 199, 216, 223 
     LINE   435     184, 200, 207, 206, 188 
                    185, 219, 212, 203, 201 
                    186, 194, 190, 207, 240 
                    187, 205, 203, 212, 208 
                    188, 214, 211, 208, 212 
     LINE   440     189, 214, 213, 215, 211 
                    190, 210, 192, 183, 218 
                    191, 218, 183,  28,  27 
                    192, 217, 220,  26,  25 
                    193, 211, 215, 222, 204 
     LINE   445     194, 212, 219, 217, 214 
                    195, 214, 217,  25,  24 
                    196, 221,  23,  22, 103 
                    197, 219, 209, 220, 217 
                    198, 220, 218,  27,  26 
     LINE   450     199, 204, 222, 236, 197 
                    200, 224, 223, 232,  96 
                    201, 237, 228,  94, 128 
                    202, 230,  71,  72, 229 
                    203, 103, 231, 232, 223 
     LINE   455     204, 233, 129, 102, 154 
                    205, 230, 229, 101, 235 
                    206, 241,  99, 237, 130 
                    207, 241, 101, 229,  99 
                    208, 137, 135, 172, 242 
     LINE   460     *UEL PROPERTY, ELSET=EALL       
                      3e+07, 0.3    
                    *Nset, nset=Set_boundary
                      2,7,8,62,63,64,65,66, 
                      67,68,69,70   
     LINE   465     *Nset, nset=Set_1       
                      3,5   
                    *Nset, nset=Set_2       
                      30, 39
                    *Nset, nset=Set_3       
     LINE   470       31, 38
                    *Nset, nset=Set_4       
                      32, 37
                    *Nset, nset=Set_5       
                      33, 36
     LINE   475     *Nset, nset=Set_6       
                      34, 35
                    *Nset, nset=Set_7       
                      4     
                    *BOUNDARY       
     LINE   480     Set_boundary, ENCASTRE  
                    *STEP   
                    *STATIC 
                    1.,1.,1e-05,1.  
                    *CLOAD  
     LINE   485     Set_1, 2, 0.0   
                    Set_2, 2, -38.194       
                    Set_3, 2, -69.44
                    Set_4, 2, -93.75
                    Set_5, 2, -111.11       
     LINE   490     Set_6, 2, -121.52       
                    Set_7, 2, -125.0
                    *OUTPUT,FIELD   
                    *ENERGY FILE    
                    *OUTPUT,HISTORY,FREQUENCY=1     
     LINE   495     *ENERGY OUTPUT,VARIABLE=PRESELECT       
                    *NODE FILE      
                    U,COORD 
                    *OUTPUT,FIELD   
                    *NODE OUTPUT    
     LINE   500     U,COORD 
                    *NODE PRINT     
                    U,COORD 
                    *EL PRINT       
                    SDV     
     LINE   505     *END STEP       
                    --------------------------------------------------------------------------------
                        5   10   15   20   25   30   35   40   45   50   55   60   65   70   75   80
                    --------------------------------------------------------------------------------



     OPTIONS BEING PROCESSED
   ***************************


  *USER ELEMENT, NODES=4, TYPE=U1, COORDINATES=2, PROPERTIES=2, VARIABLES=8

 ***WARNING: ALL CARDS BEFORE THE FIRST KEYWORD CARD ARE IGNORED
  *NODE
  *ELEMENT, TYPE=U1, ELSET=EALL
  *Nset, nset=Set_boundary
  *Nset, nset=Set_1
  *Nset, nset=Set_2
  *Nset, nset=Set_3
  *Nset, nset=Set_4
  *Nset, nset=Set_5
  *Nset, nset=Set_6
  *Nset, nset=Set_7
  *USER ELEMENT, NODES=4, TYPE=U1, COORDINATES=2, PROPERTIES=2, VARIABLES=8
  *BOUNDARY
  *BOUNDARY
  *UEL PROPERTY, ELSET=EALL
  *OUTPUT,FIELD
  *OUTPUT,HISTORY,FREQUENCY=1
  *OUTPUT,FIELD
  *OUTPUT,FIELD
  *OUTPUT,HISTORY,FREQUENCY=1
  *OUTPUT,FIELD
  *OUTPUT,FIELD
  *OUTPUT,HISTORY,FREQUENCY=1
  *OUTPUT,FIELD
  *STEP
  *OUTPUT,FIELD
  *OUTPUT,HISTORY,FREQUENCY=1
  *OUTPUT,FIELD
  *STEP
  *STEP
  *STATIC
  *OUTPUT,FIELD
  *ENERGY FILE
  *OUTPUT,HISTORY,FREQUENCY=1
  *ENERGY OUTPUT,VARIABLE=PRESELECT
  *NODE FILE
  *OUTPUT,FIELD
  *NODE OUTPUT
  *NODE PRINT
  *EL PRINT
  *END STEP
  *BOUNDARY
  *STEP
  *STATIC
  *CLOAD
  *END STEP



                            P R O B L E M   S I Z E


          NUMBER OF ELEMENTS IS                                   208
          NUMBER OF NODES IS                                      244
          NUMBER OF NODES DEFINED BY THE USER                     244
          TOTAL NUMBER OF VARIABLES IN THE MODEL                  488
          (DEGREES OF FREEDOM PLUS MAX NO. OF ANY LAGRANGE MULTIPLIER
           VARIABLES. INCLUDE *PRINT,SOLVE=YES TO GET THE ACTUAL NUMBER.)



                              END OF USER INPUT PROCESSING



     JOB TIME SUMMARY
       USER TIME (SEC)      =  0.20000    
       SYSTEM TIME (SEC)    =  0.10000    
       TOTAL CPU TIME (SEC) =  0.30000    
       WALLCLOCK TIME (SEC) =          1
1

   Abaqus 3DEXPERIENCE R2018x                                  Date 12-May-2020   Time 13:25:51
   For use by Supplied by Team-SolidSQUAD under license from Dassault Systemes or its subsidiary.

                                                                                               STEP    1  INCREMENT    1
                                                                                          TIME COMPLETED IN THIS STEP   0.00    


                        S T E P       1     S T A T I C   A N A L Y S I S


                                                                                          

     AUTOMATIC TIME CONTROL WITH -
          A SUGGESTED INITIAL TIME INCREMENT OF                 1.00    
          AND A TOTAL TIME PERIOD OF                            1.00    
          THE MINIMUM TIME INCREMENT ALLOWED IS                1.000E-05
          THE MAXIMUM TIME INCREMENT ALLOWED IS                 1.00    

     LINEAR EQUATION SOLVER TYPE         DIRECT SPARSE
  
                   M E M O R Y   E S T I M A T E
  
 PROCESS      FLOATING PT       MINIMUM MEMORY        MEMORY TO
              OPERATIONS           REQUIRED          MINIMIZE I/O
             PER ITERATION           (MB)               (MB)
  
     1          2.96E+05               17                 24
  
 NOTE:
      (1) SINCE ABAQUS DOES NOT PRE-ALLOCATE MEMORY AND ONLY ALLOCATES MEMORY AS NEEDED DURING THE ANALYSIS,
          THE MEMORY REQUIREMENT PRINTED HERE CAN ONLY BE VIEWED AS A GENERAL GUIDELINE BASED ON THE BEST
          KNOWLEDGE AVAILABLE AT THE BEGINNING OF A STEP BEFORE THE SOLUTION PROCESS HAS BEGUN.
      (2) THE ESTIMATE IS NORMALLY UPDATED AT THE BEGINNING OF EVERY STEP. IT IS THE MAXIMUM VALUE OF THE
          ESTIMATE FROM THE CURRENT STEP TO THE LAST STEP OF THE ANALYSIS, WITH UNSYMMETRIC SOLUTION TAKEN
          INTO ACCOUNT IF APPLICABLE. 
      (3) SINCE THE ESTIMATE IS BASED ON THE ACTIVE DEGREES OF FREEDOM IN THE FIRST ITERATION OF THE 
          CURRENT STEP, THE MEMORY ESTIMATE MIGHT BE SIGNIFICANTLY DIFFERENT THAN ACTUAL USAGE FOR 
          PROBLEMS WITH SUBSTANTIAL CHANGES IN ACTIVE DEGREES OF FREEDOM BETWEEN STEPS (OR EVEN WITHIN
          THE SAME STEP). EXAMPLES ARE: PROBLEMS WITH SIGNIFICANT CONTACT CHANGES, PROBLEMS WITH MODEL
          CHANGE, PROBLEMS WITH BOTH STATIC STEP AND STEADY STATE DYNAMIC PROCEDURES WHERE ACOUSTIC 
          ELEMENTS WILL ONLY BE ACTIVATED IN THE STEADY STATE DYNAMIC STEPS.
      (4) FOR MULTI-PROCESS EXECUTION, THE ESTIMATED VALUE OF FLOATING POINT OPERATIONS FOR EACH PROCESS
          IS BASED ON AN INITIAL SCHEDULING OF OPERATIONS AND MIGHT NOT REFLECT THE ACTUAL FLOATING 
          POINT OPERATIONS COMPLETED ON EACH PROCESS. OPERATIONS ARE DYNAMICALLY BALANCED DURING EXECUTION, 
          SO THE ACTUAL BALANCE OF OPERATIONS BETWEEN PROCESSES IS EXPECTED TO BE BETTER THAN THE ESTIMATE
          PRINTED HERE.
      (5) THE UPPER LIMIT OF MEMORY THAT CAN BE ALLOCATED BY ABAQUS WILL IN GENERAL DEPEND ON THE VALUE OF
          THE "MEMORY" PARAMETER AND THE AMOUNT OF PHYSICAL MEMORY AVAILABLE ON THE MACHINE. PLEASE SEE
          THE "ABAQUS ANALYSIS USER'S MANUAL" FOR MORE DETAILS. THE ACTUAL USAGE OF MEMORY AND OF DISK
          SPACE FOR SCRATCH DATA WILL DEPEND ON THIS UPPER LIMIT AS WELL AS THE MEMORY REQUIRED TO MINIMIZE
          I/O. IF THE MEMORY UPPER LIMIT IS GREATER THAN THE MEMORY REQUIRED TO MINIMIZE I/O, THEN THE ACTUAL
          MEMORY USAGE WILL BE CLOSE TO THE ESTIMATED "MEMORY TO MINIMIZE I/O" VALUE, AND THE SCRATCH DISK
          USAGE WILL BE CLOSE-TO-ZERO; OTHERWISE, THE ACTUAL MEMORY USED WILL BE CLOSE TO THE PREVIOUSLY
          MENTIONED MEMORY LIMIT, AND THE SCRATCH DISK USAGE WILL BE ROUGHLY PROPORTIONAL TO THE DIFFERENCE
          BETWEEN THE ESTIMATED "MEMORY TO MINIMIZE I/O" AND THE MEMORY UPPER LIMIT. HOWEVER ACCURATE
          ESTIMATE OF THE SCRATCH DISK SPACE IS NOT POSSIBLE.
      (6) USING "*RESTART, WRITE" CAN GENERATE A LARGE AMOUNT OF DATA WRITTEN IN THE WORK DIRECTORY.


                                INCREMENT     1 SUMMARY


 TIME INCREMENT COMPLETED   1.00    ,  FRACTION OF STEP COMPLETED   1.00    
 STEP TIME COMPLETED        1.00    ,  TOTAL TIME COMPLETED         1.00    



                                                  E L E M E N T   O U T P U T





   THE FOLLOWING TABLE IS PRINTED FOR ALL ELEMENTS WITH TYPE U1 AT THE INTEGRATION POINTS

    ELEMENT  PT FOOT-       SDV1        SDV2        SDV3        SDV4        SDV5        SDV6        SDV7        SDV8        
                NOTE 

           1   1         -1499.      -60.16      -107.0     -4.9354E-05  1.2982E-05 -4.6349E-06  0.8144      0.7544
           2   1          1280.      -3.478      -31.60      4.2696E-05 -1.2914E-05 -1.3693E-06   1.527       1.544
           3   1          116.6       1.603      -144.5      3.8692E-06 -1.1121E-06 -6.2634E-06  0.9169      0.9324
           4   1         -9.628      -2.909      -138.2     -2.9186E-07 -6.6691E-10 -5.9894E-06  0.7714      0.7847
           5   1          719.2     -2.1478E-02  -34.94      2.3975E-05 -7.1930E-06 -1.5142E-06   2.093       2.082
           6   1         -24.07      -5.974      -125.1     -7.4268E-07  4.1603E-08 -5.4204E-06   1.282       1.088
           7   1         -879.6      -6.559      -28.54     -2.9253E-05  8.5769E-06 -1.2369E-06   1.730       1.677
           8   1          1014.     -0.6199      -34.52      3.3808E-05 -1.0161E-05 -1.4960E-06   1.570       1.571
           9   1         -943.8      -2.246      -32.03     -3.1437E-05  9.3630E-06 -1.3881E-06   1.784       1.766
          10   1         -1014.     -0.9083      -39.90     -3.3780E-05  1.0106E-05 -1.7290E-06   1.639       1.721
          11   1         -1224.      0.8667      -30.20     -4.0807E-05  1.2269E-05 -1.3087E-06   1.470       1.507
          12   1         -1291.      -1.938      -31.36     -4.3012E-05  1.2845E-05 -1.3588E-06   1.571       1.555
          13   1          1417.      -3.679      -35.94      4.7278E-05 -1.4295E-05 -1.5573E-06   1.960       2.070
          14   1          1465.       8.264      -19.50      4.8744E-05 -1.4372E-05 -8.4518E-07   1.951       2.079
          15   1         -368.5      -102.0       4.094     -1.1264E-05  2.8568E-07  1.7739E-07  0.5059      0.5133
          16   1         -611.5      -102.5      -60.26     -1.9358E-05  2.6978E-06 -2.6111E-06  0.4639      0.4370
          17   1         -61.00      -3.790      -29.05     -1.9954E-06  4.8366E-07 -1.2587E-06   1.466       1.254
          18   1         -2.725       21.50      -121.6     -3.0586E-07  7.4397E-07 -5.2691E-06  0.3745      0.4076
          19   1         -2.625      -58.06      -78.01      4.9310E-07 -1.9091E-06 -3.3804E-06  0.3523      0.4017
          20   1         -112.4      -5.648      -107.3     -3.6894E-06  9.3550E-07 -4.6509E-06   1.562       1.472
          21   1          346.0       1.440      -88.93      1.1518E-05 -3.4118E-06 -3.8534E-06   2.031       2.060
          22   1         -87.11      0.3106      -120.1     -2.9069E-06  8.8148E-07 -5.2064E-06   2.184       2.180
          23   1          386.4      -3.440      -93.26      1.2913E-05 -3.9783E-06 -4.0415E-06   2.177       2.150
          24   1         -112.0      0.8051      -119.2     -3.7416E-06  1.1469E-06 -5.1652E-06   2.335       2.349
          25   1         -6.635      -23.00      -91.63      8.8508E-09 -7.0039E-07 -3.9706E-06  0.4881      0.4963
          26   1         -4.491       51.85      -84.35     -6.6821E-07  1.7732E-06 -3.6552E-06  0.5068      0.5099
          27   1         -5.420       83.94      -96.49     -1.0201E-06  2.8522E-06 -4.1813E-06  0.7752      0.7966
          28   1         -26.24       51.52      -74.64     -1.3900E-06  1.9799E-06 -3.2343E-06   1.034       1.136
          29   1          8.477      -53.68      -85.72      8.1940E-07 -1.8743E-06 -3.7147E-06  0.6547      0.6596
          30   1        -0.7623      -82.05      -92.96      7.9504E-07 -2.7272E-06 -4.0284E-06  0.7209      0.7877
          31   1          69.16       9.008      -37.17      2.2153E-06 -3.9136E-07 -1.6108E-06  0.8979      0.8690
          32   1          26.41      -19.45      -82.63      1.0749E-06 -9.1254E-07 -3.5807E-06  0.8717      0.9096
          33   1         -6.090      -86.55      -91.78      6.6246E-07 -2.8240E-06 -3.9773E-06  0.6220      0.6712
          34   1          490.9      -2.247      -90.28      1.6387E-05 -4.9843E-06 -3.9123E-06   2.089       1.997
          35   1          558.9      0.8254      -83.43      1.8622E-05 -5.5616E-06 -3.6155E-06   1.703       1.769
          36   1          645.3      -1.276      -34.64      2.1523E-05 -6.4955E-06 -1.5011E-06   2.094       2.087
          37   1          568.6      -1.490      -36.33      1.8968E-05 -5.7355E-06 -1.5744E-06   2.045       2.066
          38   1          492.3      0.4411      -34.88      1.6405E-05 -4.9080E-06 -1.5115E-06   2.053       2.027
          39   1          254.2     -0.1757      -90.08      8.4738E-06 -2.5475E-06 -3.9033E-06   2.005       1.969
          40   1         0.5276      -2.935      -133.2      4.6936E-08 -1.0311E-07 -5.7701E-06  0.8041      0.6950
          41   1          1756.       235.6      -198.9      5.6183E-05 -9.7091E-06 -8.6193E-06   1.407       1.379
          42   1          1141.       234.2      -86.33      3.5685E-05 -3.6009E-06 -3.7409E-06   1.304       1.235
          43   1          224.6       27.73      -64.47      7.2098E-06 -1.3218E-06 -2.7937E-06  0.6571      0.7407
          44   1          20.00       12.50      -97.48      5.4169E-07  2.1672E-07 -4.2242E-06  0.6228      0.5866
          45   1          855.0      -6.862      -82.16      2.8567E-05 -8.7784E-06 -3.5601E-06   1.525       1.486
          46   1          1340.      -3.667      -26.21      4.4719E-05 -1.3527E-05 -1.1358E-06   1.534       1.515
          47   1          1208.      0.7329      -33.85      4.0251E-05 -1.2053E-05 -1.4669E-06   1.584       1.589
          48   1          627.8       5.033      -84.79      2.0877E-05 -6.1106E-06 -3.6742E-06   1.521       1.557
          49   1          720.0      -6.593      -82.75      2.4064E-05 -7.4193E-06 -3.5856E-06   1.491       1.530
          50   1         -121.4      -35.53       16.94     -3.6923E-06  2.9916E-08  7.3416E-07  0.5340      0.5309
          51   1          242.3       62.12       17.60      7.4569E-06 -3.5275E-07  7.6282E-07  0.8096      0.8875
          52   1          680.8       153.1      -12.25      2.1162E-05 -1.7043E-06 -5.3081E-07   1.035       1.124
          53   1         -1924.      -262.7      -225.3     -6.1512E-05  1.0486E-05 -9.7623E-06  0.7659      0.7756
          54   1         -1661.       38.44       10.31     -5.5764E-05  1.7895E-05  4.4698E-07  0.9069      0.8290
          55   1         -611.9      -152.2      -6.408     -1.8874E-05  1.0446E-06 -2.7769E-07  0.5083      0.5036
          56   1         -1022.      -31.07      -122.7     -3.3755E-05  9.1840E-06 -5.3163E-06  0.6386      0.7117
          57   1         -894.2      -204.1      -35.57     -2.7766E-05  2.1385E-06 -1.5414E-06  0.5487      0.5172
          58   1         -1190.      -253.6      -96.49     -3.7114E-05  3.4426E-06 -4.1811E-06  0.5908      0.6340
          59   1         -898.3      -146.3      -109.9     -2.8479E-05  4.1065E-06 -4.7637E-06  0.3878      0.4489
          60   1         -1508.      -259.4      -154.8     -4.7669E-05  6.4322E-06 -6.7091E-06  0.6844      0.7251
          61   1         -1184.      -126.5      -118.2     -3.8199E-05  7.6222E-06 -5.1226E-06  0.5820      0.6402
          62   1         -4.432       16.69      -123.7     -3.1460E-07  6.0057E-07 -5.3596E-06  0.3740      0.4492
          63   1          16.87       30.03      -83.15      2.6212E-07  8.3217E-07 -3.6032E-06  0.3791      0.3107
          64   1         -59.10       2.594      -72.49     -1.9958E-06  6.7741E-07 -3.1414E-06   1.525       1.296
          65   1          1.158       28.53      -115.6     -2.4669E-07  9.3937E-07 -5.0105E-06  0.4348      0.3707
          66   1          5.906       86.48      -95.15     -6.6797E-07  2.8237E-06 -4.1231E-06  0.5861      0.5797
          67   1          61.06       1.049      -87.90      2.0247E-06 -5.7560E-07 -3.8091E-06   1.449       1.327
          68   1          22.95       2.245      -130.0      7.4259E-07 -1.5467E-07 -5.6339E-06  0.8842      0.9440
          69   1         -91.90      -14.59      -64.02     -2.9175E-06  4.3263E-07 -2.7743E-06  0.4469      0.4984
          70   1          628.6       90.47      -88.66      2.0050E-05 -3.2708E-06 -3.8420E-06   1.193       1.255
          71   1          1574.      -20.34      -14.47      5.2679E-05 -1.6421E-05 -6.2701E-07   1.561       1.561
          72   1          1179.       93.22      -128.0      3.8359E-05 -8.6801E-06 -5.5475E-06   1.397       1.355
          73   1         -1367.       3.688      -40.48     -4.5594E-05  1.3790E-05 -1.7543E-06   1.535       1.454
          74   1         -754.1       44.44      -86.12     -2.5580E-05  9.0219E-06 -3.7320E-06   1.112      0.8833
          75   1          59.25      -4.491      -33.68      2.0200E-06 -7.4223E-07 -1.4596E-06  0.9182      0.9757
          76   1          6.673      -29.69      -118.0      5.1932E-07 -1.0564E-06 -5.1152E-06  0.5260      0.4134
          77   1          64.84       1.999      -121.9      2.1413E-06 -5.8173E-07 -5.2818E-06   1.510       1.370
          78   1          3.396      -25.95      -115.0      3.7271E-07 -8.9895E-07 -4.9819E-06  0.8413      0.8097
          79   1          11.96      -5.985      -126.2      4.5835E-07 -3.1906E-07 -5.4695E-06   1.011       1.029
          80   1          123.4       4.892      -86.80      4.0659E-06 -1.0714E-06 -3.7613E-06   1.291       1.460
          81   1         0.7514       8.962      -110.6     -6.4568E-08  2.9120E-07 -4.7928E-06  0.5731      0.6625
          82   1         -137.3      0.9492      -24.75     -4.5867E-06  1.4048E-06 -1.0723E-06   2.142       2.127
          83   1         -5.545       18.68      -104.3     -3.7162E-07  6.7807E-07 -4.5182E-06  0.8096      0.7000
          84   1         -1499.      0.3214      -28.43     -4.9986E-05  1.5006E-05 -1.2320E-06   1.347       1.384
          85   1          639.7      -15.13      -107.9      2.1476E-05 -6.9017E-06 -4.6746E-06   1.398       1.557
          86   1         -213.9      -6.538      -55.60     -7.0630E-06  1.9206E-06 -2.4092E-06   2.029       1.942
          87   1         -782.2      -73.28      -123.3     -2.5342E-05  5.3796E-06 -5.3442E-06  0.4163      0.5328
          88   1          919.1      -3.215      -78.96      3.0669E-05 -9.2981E-06 -3.4214E-06   1.413       1.425
          89   1         -1572.       1.991      -21.80     -5.2423E-05  1.5787E-05 -9.4459E-07   1.100       1.302
          90   1         -1444.      7.5054E-02  -24.11     -4.8122E-05  1.4439E-05 -1.0449E-06   1.374       1.315
          91   1          1391.       2.722      -31.53      4.6335E-05 -1.3818E-05 -1.3661E-06   1.629       1.632
          92   1         -218.2      -21.39      -99.48     -7.0581E-06  1.4685E-06 -4.3109E-06  0.7897      0.6317
          93   1          489.5      -11.97      -118.1      1.6437E-05 -5.2942E-06 -5.1175E-06   1.221       1.266
          94   1          267.7      0.3942      -34.88      8.9182E-06 -2.6635E-06 -1.5113E-06   2.000       2.086
          95   1          987.5      -18.16      -82.51      3.3100E-05 -1.0481E-05 -3.5754E-06   1.743       1.532
          96   1         -810.4       4.737      -25.72     -2.7060E-05  8.2616E-06 -1.1146E-06   1.960       1.933
          97   1         -484.7       5.805      -85.53     -1.6214E-05  5.0403E-06 -3.7063E-06   1.827       1.969
          98   1         -1163.      -1.516      -28.15     -3.8761E-05  1.1582E-05 -1.2198E-06   1.445       1.434
          99   1          869.4       2.466      -32.85      2.8954E-05 -8.6113E-06 -1.4234E-06   1.740       1.696
         100   1          940.8       1.913      -33.06      3.1342E-05 -9.3444E-06 -1.4325E-06   1.623       1.613
         101   1         -302.2       4.469      -116.2     -1.0118E-05  3.1709E-06 -5.0371E-06   1.635       1.578
         102   1          1142.      0.8895      -30.20      3.8073E-05 -1.1395E-05 -1.3087E-06   1.598       1.599
         103   1          681.4      0.5636      -83.12      2.2706E-05 -6.7948E-06 -3.6017E-06   1.456       1.468
         104   1          799.7       4.054      -86.39      2.6617E-05 -7.8620E-06 -3.7436E-06   1.624       1.650
         105   1         -1090.       2.378      -32.51     -3.6360E-05  1.0980E-05 -1.4086E-06   1.485       1.544
         106   1         -846.9      -8.847      -77.15     -2.8140E-05  8.1738E-06 -3.3431E-06   1.421       1.491
         107   1         -912.7       13.05      -84.71     -3.0553E-05  9.5617E-06 -3.6707E-06   1.782       1.567
         108   1         -236.0      -2.218      -105.9     -7.8450E-06  2.2862E-06 -4.5871E-06   1.148       1.516
         109   1          896.2      0.8657      -85.50      2.9864E-05 -8.9329E-06 -3.7052E-06   1.672       1.579
         110   1         -206.3       10.49      -119.2     -6.9809E-06  2.4125E-06 -5.1643E-06   1.404       1.121
         111   1         -599.2      0.8307      -87.48     -1.9981E-05  6.0195E-06 -3.7908E-06   1.922       2.048
         112   1         -768.7      -1.177      -85.33     -2.5612E-05  7.6480E-06 -3.6975E-06   1.404       1.334
         113   1          1082.      -1.953      -30.32      3.6094E-05 -1.0887E-05 -1.3138E-06   1.578       1.583
         114   1          103.2      -4.537      -123.6      3.4846E-06 -1.1830E-06 -5.3559E-06   1.091      0.9210
         115   1         -1017.     -0.9312      -53.95     -3.3891E-05  1.0139E-05 -2.3376E-06  0.8219      0.8757
         116   1         -1162.       8.748      -76.62     -3.8818E-05  1.1911E-05 -3.3204E-06  0.9592       1.080
         117   1          130.5     -0.3865      -27.53      4.3544E-06 -1.3180E-06 -1.1929E-06   1.955       2.149
         118   1          341.7      -1.416      -36.52      1.1404E-05 -3.4642E-06 -1.5826E-06   2.110       2.058
         119   1          65.58       4.710      -119.0      2.1389E-06 -4.9878E-07 -5.1571E-06   1.083       1.186
         120   1          940.3       5.280      -74.27      3.1291E-05 -9.2271E-06 -3.2183E-06   1.442       1.418
         121   1         -845.6      -1.780      -86.88     -2.8169E-05  8.3968E-06 -3.7646E-06   1.753       1.878
         122   1         -828.2       2.994      -70.68     -2.7637E-05  8.3820E-06 -3.0629E-06   1.261       1.312
         123   1          757.5       2.065      -75.94      2.5228E-05 -7.5057E-06 -3.2907E-06   1.635       1.583
         124   1         -664.5       2.328      -79.31     -2.2174E-05  6.7229E-06 -3.4368E-06   1.703       1.891
         125   1          505.5       3.833      -111.5      1.6812E-05 -4.9273E-06 -4.8298E-06   1.132       1.124
         126   1         -655.8      0.8620      -124.7     -2.1868E-05  6.5867E-06 -5.4028E-06   1.158       1.213
         127   1         -1057.      -4.056      -72.78     -3.5180E-05  1.0431E-05 -3.1537E-06   1.257       1.299
         128   1          433.4      0.9164      -110.6      1.4438E-05 -4.3035E-06 -4.7942E-06  0.8416      0.9528
         129   1         -583.7      -7.622      -88.74     -1.9379E-05  5.5826E-06 -3.8456E-06   1.709       1.679
         130   1         -474.7       5.931      -123.0     -1.5882E-05  4.9444E-06 -5.3296E-06   1.467       1.432
         131   1          446.5       4.413      -115.0      1.4839E-05 -4.3178E-06 -4.9835E-06   1.435       1.486
         132   1          309.2      -16.56      -150.0      1.0472E-05 -3.6440E-06 -6.5009E-06  0.9733       1.075
         133   1          47.57       4.016      -111.1      1.5456E-06 -3.4186E-07 -4.8137E-06   1.485       1.443
         134   1          364.7       1.133      -110.4      1.2144E-05 -3.6089E-06 -4.7824E-06   1.820       1.948
         135   1         -42.94      -17.04      -122.1     -1.2609E-06 -1.3876E-07 -5.2923E-06   1.639       1.856
         136   1         -278.0       7.145      -122.1     -9.3376E-06  3.0180E-06 -5.2902E-06   1.896       1.672
         137   1          100.7      -8.888      -131.1      3.4472E-06 -1.3038E-06 -5.6819E-06  0.9196       1.109
         138   1          357.3      -5.809      -119.2      1.1967E-05 -3.7664E-06 -5.1671E-06   1.862       1.668
         139   1         -313.0      -7.958      -122.7     -1.0354E-05  2.8648E-06 -5.3188E-06   1.408       1.278
         140   1         -547.9       1.927      -79.98     -1.8283E-05  5.5434E-06 -3.4657E-06   1.743       1.747
         141   1         -18.29       1.968      -120.9     -6.2924E-07  2.4846E-07 -5.2406E-06  0.6997      0.7821
         142   1          13.51       1.671      -131.5      4.3371E-07 -7.9432E-08 -5.6964E-06  0.7772      0.8278
         143   1         -728.6       2.597      -33.97     -2.4311E-05  7.3721E-06 -1.4722E-06   1.965       2.022
         144   1         -441.0      -4.627      -126.6     -1.4654E-05  4.2559E-06 -5.4862E-06   1.116       1.408
         145   1          63.95      -36.76      -147.4      2.4992E-06 -1.8648E-06 -6.3881E-06  0.9496      0.9012
         146   1          194.0       2.146      -33.93      6.4456E-06 -1.8686E-06 -1.4704E-06   2.283       2.142
         147   1         -32.32       8.653      -125.5     -1.1637E-06  6.1158E-07 -5.4380E-06   1.457       1.434
         148   1          288.8       15.60      -114.2      9.4717E-06 -2.3684E-06 -4.9485E-06  0.8318      0.9843
         149   1          53.75       2.088      -115.2      1.7709E-06 -4.6794E-07 -4.9908E-06   1.451       1.448
         150   1          336.7       5.073      -109.8      1.1172E-05 -3.1979E-06 -4.7580E-06   1.462       1.421
         151   1          381.9      0.7957      -110.9      1.2722E-05 -3.7925E-06 -4.8074E-06   1.307       1.260
         152   1          542.9       26.72      -145.7      1.7831E-05 -4.5389E-06 -6.3123E-06  0.9395       1.104
         153   1         -483.4       4.802      -101.9     -1.6162E-05  4.9942E-06 -4.4144E-06  0.9284       1.133
         154   1          89.96       3.221      -123.2      2.9664E-06 -7.9224E-07 -5.3376E-06  0.9390       1.037
         155   1         -152.6      -4.172      -115.6     -5.0445E-06  1.3868E-06 -5.0111E-06   1.106       1.387
         156   1         -507.9      -2.370      -107.8     -1.6907E-05  5.0003E-06 -4.6708E-06  0.9261       1.101
         157   1         -365.7      0.4208      -117.6     -1.2193E-05  3.6707E-06 -5.0946E-06   1.606       1.695
         158   1          10.43       1.017      -124.0      3.3759E-07 -7.0431E-08 -5.3737E-06   1.679       1.589
         159   1          79.29       7.575      -122.0      2.5673E-06 -5.4043E-07 -5.2855E-06   1.091      0.8917
         160   1         -274.6       8.230      -119.9     -9.2367E-06  3.0207E-06 -5.1972E-06   1.244       1.126
         161   1          388.0      -2.076      -106.5      1.2953E-05 -3.9487E-06 -4.6163E-06   1.383       1.312
         162   1         -423.0       3.147      -115.7     -1.4133E-05  4.3354E-06 -5.0126E-06   1.599       1.792
         163   1          795.3      -3.191      -34.15      2.6541E-05 -8.0592E-06 -1.4799E-06   2.036       1.995
         164   1          436.9     -0.3877      -88.20      1.4567E-05 -4.3817E-06 -3.8219E-06   2.205       2.205
         165   1          119.8       1.511      -115.6      3.9775E-06 -1.1474E-06 -5.0107E-06   1.867       1.806
         166   1         -49.65       2.506      -117.8     -1.6802E-06  5.8007E-07 -5.1051E-06   1.067       1.228
         167   1          416.1      -1.658      -33.94      1.3886E-05 -4.2160E-06 -1.4708E-06   2.076       2.052
         168   1          64.30      -2.175      -120.2      2.1650E-06 -7.1549E-07 -5.2098E-06   1.699       1.938
         169   1         -348.7       2.340      -90.94     -1.1648E-05  3.5654E-06 -3.9407E-06   2.339       2.323
         170   1         -233.5       8.116      -117.5     -7.8654E-06  2.6058E-06 -5.0905E-06   1.393       1.832
         171   1        -0.9442      -4.019      -124.7      8.7185E-09 -1.2453E-07 -5.4051E-06   1.597       1.538
         172   1          279.6       4.297      -115.0      9.2770E-06 -2.6527E-06 -4.9812E-06   1.692       1.652
         173   1         -144.6      0.1640      -115.9     -4.8231E-06  1.4519E-06 -5.0223E-06   2.531       2.600
         174   1          162.7       1.325      -90.26      5.4089E-06 -1.5825E-06 -3.9111E-06   2.012       1.937
         175   1          131.3      5.8262E-03  -118.7      4.3769E-06 -1.3129E-06 -5.1440E-06   2.240       2.254
         176   1          304.4      0.6156      -87.62      1.0141E-05 -3.0237E-06 -3.7969E-06   1.953       1.968
         177   1          185.0      -2.462      -118.5      6.1908E-06 -1.9319E-06 -5.1345E-06   2.109       2.353
         178   1         -304.5      0.7464      -39.33     -1.0156E-05  3.0695E-06 -1.7042E-06   2.144       2.354
         179   1          128.5       1.917      -119.0      4.2638E-06 -1.2210E-06 -5.1557E-06   2.086       2.065
         180   1          199.0      -1.498      -89.97      6.6467E-06 -2.0395E-06 -3.8988E-06   2.115       2.280
         181   1          102.9      -2.652      -113.4      3.4560E-06 -1.1172E-06 -4.9156E-06   1.615       1.767
         182   1         -99.23      -8.787      -95.01     -3.2199E-06  6.9943E-07 -4.1169E-06   1.677       1.676
         183   1         -25.49      -1.178      -128.7     -8.3782E-07  2.1562E-07 -5.5771E-06  0.8908       1.101
         184   1         -62.93      -4.674      -125.7     -2.0509E-06  4.7347E-07 -5.4469E-06   1.361       1.723
         185   1         -55.61      0.9225      -122.5     -1.8630E-06  5.8689E-07 -5.3068E-06   1.825       1.745
         186   1          132.4      -5.186      -126.1      4.4651E-06 -1.4968E-06 -5.4636E-06   2.466       2.547
         187   1         -39.46     -0.8188      -122.2     -1.3070E-06  3.6727E-07 -5.2954E-06   1.057       1.268
         188   1         -150.0     -0.6846      -104.8     -4.9939E-06  1.4774E-06 -4.5433E-06   1.606       1.245
         189   1         -203.9      -1.283      -99.88     -6.7846E-06  1.9965E-06 -4.3283E-06   1.590       1.368
         190   1         -418.3     -0.7011      -85.11     -1.3935E-05  4.1591E-06 -3.6883E-06   2.267       2.203
         191   1         -640.6      0.5921      -34.34     -2.1359E-05  6.4257E-06 -1.4882E-06   2.173       2.106
         192   1         -469.9       1.557      -39.30     -1.5679E-05  4.7508E-06 -1.7030E-06   2.440       2.359
         193   1         -82.48      -2.658      -113.3     -2.7227E-06  7.3619E-07 -4.9076E-06   1.410       1.377
         194   1         -231.4      0.4769      -99.86     -7.7196E-06  2.3304E-06 -4.3273E-06   2.202       2.146
         195   1         -381.2     -0.6068      -41.53     -1.2702E-05  3.7920E-06 -1.7998E-06   2.738       2.571
         196   1         -196.0      -7.347      -40.47     -6.4604E-06  1.7152E-06 -1.7535E-06   2.579       2.748
         197   1         -290.7     -0.3187      -91.79     -9.6875E-06  2.8966E-06 -3.9774E-06   2.289       2.291
         198   1         -556.6       1.246      -35.18     -1.8565E-05  5.6073E-06 -1.5244E-06   2.295       2.239
         199   1          15.94       1.946      -118.3      5.1187E-07 -9.4539E-08 -5.1255E-06   1.529       1.239
         200   1         -26.95      -3.021      -130.4     -8.6803E-07  1.6876E-07 -5.6525E-06  0.6925      0.7931
         201   1         -1286.       16.41      -58.01     -4.3018E-05  1.3403E-05 -2.5137E-06   1.130      0.9822
         202   1         -359.0      -60.49      -59.89     -1.1361E-05  1.5736E-06 -2.5951E-06  0.6130      0.5634
         203   1         -54.26      -8.512      -107.3     -1.7235E-06  2.5884E-07 -4.6479E-06   1.385       1.200
         204   1          71.45       8.725      -99.56      2.2943E-06 -4.2364E-07 -4.3145E-06   1.130       1.116
         205   1         -279.0      -49.36      -119.2     -8.8076E-06  1.1451E-06 -5.1665E-06  0.5268      0.4917
         206   1         -813.6      -24.27      -123.1     -2.6879E-05  7.3274E-06 -5.3360E-06  0.7991      0.7749
         207   1         -557.0      -19.59      -96.14     -1.8371E-05  4.9171E-06 -4.1661E-06  0.6176      0.5453
         208   1         -524.6      -5.279      -115.4     -1.7435E-05  5.0702E-06 -5.0006E-06   1.242       1.579

 MAXIMUM                 1756.       235.6       17.60      5.6183E-05  1.7895E-05  7.6282E-07   2.738       2.748                
 ELEMENT                    41          41          51          41          54          51         195         196             

 MINIMUM                -1924.      -262.7      -225.3     -6.1512E-05 -1.6421E-05 -9.7623E-06  0.3523      0.3107                
 ELEMENT                    53          53          53          53          71          53          19          63             
  
  
  
  
                                       N O D E   O U T P U T
  
  
  
  
   THE FOLLOWING TABLE IS PRINTED FOR ALL NODES
  
       NODE FOOT-  U1             U2             COOR1          COOR2        
            NOTE
  
         1     -1.1880383E-03 -2.7382997E-03  2.4000000E+01 -6.0000000E+00 
         2      0.0000000E+00  0.0000000E+00  0.0000000E+00 -6.0000000E+00 
         3     -1.5912242E-03 -8.6228878E-03  4.8000000E+01 -6.0000000E+00 
         4      2.9672997E-07 -8.6123834E-03  4.8000000E+01  0.0000000E+00 
         5      1.5923023E-03 -8.6230838E-03  4.8000000E+01  6.0000000E+00 
         6      1.1878136E-03 -2.7394524E-03  2.4000000E+01  6.0000000E+00 
         7      0.0000000E+00  0.0000000E+00  0.0000000E+00  6.0000000E+00 
         8      0.0000000E+00  0.0000000E+00  0.0000000E+00  0.0000000E+00 
         9     -1.1233063E-03 -2.3788065E-03  2.2153847E+01 -6.0000000E+00 
        10     -1.0551326E-03 -2.0388110E-03  2.0307692E+01 -6.0000000E+00 
        11     -9.8244041E-04 -1.7190352E-03  1.8461538E+01 -6.0000000E+00 
        12     -9.0460518E-04 -1.4225223E-03  1.6615385E+01 -6.0000000E+00 
        13     -8.2285749E-04 -1.1518940E-03  1.4769231E+01 -6.0000000E+00 
        14     -7.3548250E-04 -9.0779202E-04  1.2923077E+01 -6.0000000E+00 
        15     -6.4368353E-04 -6.9087800E-04  1.1076923E+01 -6.0000000E+00 
        16     -5.4714002E-04 -5.0156064E-04  9.2307692E+00 -6.0000000E+00 
        17     -4.4619436E-04 -3.4208076E-04  7.3846154E+00 -6.0000000E+00 
        18     -3.4075130E-04 -2.1742968E-04  5.5384617E+00 -6.0000000E+00 
        19     -2.3296836E-04 -1.2173615E-04  3.6923077E+00 -6.0000000E+00 
        20     -1.2764379E-04 -5.7276903E-05  1.8461539E+00 -6.0000000E+00 
        21     -1.5854302E-03 -7.9756296E-03  4.5599998E+01 -6.0000000E+00 
        22     -1.5702121E-03 -7.3362734E-03  4.3200001E+01 -6.0000000E+00 
        23     -1.5495464E-03 -6.7053900E-03  4.0799999E+01 -6.0000000E+00 
        24     -1.5212767E-03 -6.0854488E-03  3.8400002E+01 -6.0000000E+00 
        25     -1.4852636E-03 -5.4772471E-03  3.6000000E+01 -6.0000000E+00 
        26     -1.4414277E-03 -4.8851537E-03  3.3599998E+01 -6.0000000E+00 
        27     -1.3896236E-03 -4.3120609E-03  3.1200001E+01 -6.0000000E+00 
        28     -1.3301787E-03 -3.7608263E-03  2.8799999E+01 -6.0000000E+00 
        29     -1.2628802E-03 -3.2349497E-03  2.6400000E+01 -6.0000000E+00 
        30     -2.6247746E-04 -8.6100418E-03  4.8000000E+01 -1.0000000E+00 
        31     -5.2383834E-04 -8.6129352E-03  4.8000000E+01 -2.0000000E+00 
        32     -7.8738930E-04 -8.6171210E-03  4.8000000E+01 -3.0000000E+00 
        33     -1.0530771E-03 -8.6212625E-03  4.8000000E+01 -4.0000000E+00 
        34     -1.3212305E-03 -8.6237783E-03  4.8000000E+01 -5.0000000E+00 
        35      1.3211795E-03 -8.6245163E-03  4.8000000E+01  5.0000000E+00 
        36      1.0534161E-03 -8.6215003E-03  4.8000000E+01  4.0000000E+00 
        37      7.8777774E-04 -8.6172966E-03  4.8000000E+01  3.0000000E+00 
        38      5.2380982E-04 -8.6131562E-03  4.8000000E+01  2.0000000E+00 
        39      2.6199798E-04 -8.6096425E-03  4.8000000E+01  1.0000000E+00 
        40      1.2565447E-03 -3.1899825E-03  2.6181818E+01  6.0000000E+00 
        41      1.3190274E-03 -3.6641822E-03  2.8363636E+01  6.0000000E+00 
        42      1.3750328E-03 -4.1594703E-03  3.0545454E+01  6.0000000E+00 
        43      1.4246474E-03 -4.6739143E-03  3.2727272E+01  6.0000000E+00 
        44      1.4673677E-03 -5.2054661E-03  3.4909092E+01  6.0000000E+00 
        45      1.5037540E-03 -5.7518199E-03  3.7090908E+01  6.0000000E+00 
        46      1.5332422E-03 -6.3100283E-03  3.9272728E+01  6.0000000E+00 
        47      1.5561363E-03 -6.8774055E-03  4.1454544E+01  6.0000000E+00 
        48      1.5731918E-03 -7.4524930E-03  4.3636364E+01  6.0000000E+00 
        49      1.5856774E-03 -8.0337439E-03  4.5818180E+01  6.0000000E+00 
        50      1.2669383E-04 -5.8678693E-05  1.8461539E+00  6.0000000E+00 
        51      2.3208315E-04 -1.2141485E-04  3.6923077E+00  6.0000000E+00 
        52      3.4173662E-04 -2.1753260E-04  5.5384617E+00  6.0000000E+00 
        53      4.4837603E-04 -3.4199901E-04  7.3846154E+00  6.0000000E+00 
        54      5.4855489E-04 -5.0126120E-04  9.2307692E+00  6.0000000E+00 
        55      6.4434018E-04 -6.9035697E-04  1.1076923E+01  6.0000000E+00 
        56      7.3586720E-04 -9.0814928E-04  1.2923077E+01  6.0000000E+00 
        57      8.2278712E-04 -1.1530956E-03  1.4769231E+01  6.0000000E+00 
        58      9.0499844E-04 -1.4236313E-03  1.6615385E+01  6.0000000E+00 
        59      9.8290708E-04 -1.7186094E-03  1.8461538E+01  6.0000000E+00 
        60      1.0561592E-03 -2.0371159E-03  2.0307692E+01  6.0000000E+00 
        61      1.1243754E-03 -2.3782179E-03  2.2153847E+01  6.0000000E+00 
        62      0.0000000E+00  0.0000000E+00  0.0000000E+00  1.5000000E+00 
        63      0.0000000E+00  0.0000000E+00  0.0000000E+00  3.0000000E+00 
        64      0.0000000E+00  0.0000000E+00  0.0000000E+00  4.5000000E+00 
        65      0.0000000E+00  0.0000000E+00  0.0000000E+00 -5.1428571E+00 
        66      0.0000000E+00  0.0000000E+00  0.0000000E+00 -4.2857141E+00 
        67      0.0000000E+00  0.0000000E+00  0.0000000E+00 -3.4285715E+00 
        68      0.0000000E+00  0.0000000E+00  0.0000000E+00 -2.5714285E+00 
        69      0.0000000E+00  0.0000000E+00  0.0000000E+00 -1.7142857E+00 
        70      0.0000000E+00  0.0000000E+00  0.0000000E+00 -8.5714287E-01 
        71     -8.3298364E-06 -5.2643596E-06  1.1547117E+00 -7.6990753E-01 
        72     -1.7350728E-05 -5.9264705E-06  1.1893387E+00 -1.6496027E+00 
        73     -2.6411427E-05 -7.5924810E-06  1.1669561E+00 -2.5114291E+00 
        74     -9.0453571E-05 -3.5333933E-05  1.7050991E+00 -5.1216807E+00 
        75     -1.8967766E-04 -8.3434591E-03  4.6991886E+01 -7.2425711E-01 
        76     -4.4576048E-04 -8.3361936E-03  4.6962135E+01 -1.7037958E+00 
        77     -6.8039107E-04 -8.2621211E-03  4.6680477E+01 -2.5985465E+00 
        78     -9.2759325E-04 -8.1507109E-03  4.6261471E+01 -3.5358403E+00 
        79      7.2529422E-04 -8.2574584E-03  4.6661808E+01  2.7682559E+00 
        80      4.3693194E-04 -8.3324567E-03  4.6948749E+01  1.6707649E+00 
        81      2.5748773E-04 -8.4377736E-03  4.7345547E+01  9.8305237E-01 
        82      1.4978802E-06 -5.1448345E-06  1.1405973E+00  2.2677515E-01 
        83      1.8568405E-05 -7.1290871E-06  1.3482679E+00  1.4708196E+00 
        84      4.3102487E-05 -1.3834124E-05  1.5859228E+00  2.9035869E+00 
        85     -4.1821247E-05 -1.2450779E-05  1.3137410E+00 -3.3657937E+00 
        86     -7.3869945E-05 -3.8843372E-05  2.4826179E+00 -3.0869281E+00 
        87     -4.7846631E-05 -2.5545701E-05  2.0837357E+00 -2.4307227E+00 
        88      1.0402804E-03 -8.2393393E-03  4.6588306E+01  3.9551876E+00 
        89     -3.6658758E-04 -8.1321698E-03  4.6198143E+01 -1.4015644E+00 
        90     -1.3596199E-04 -8.0891409E-03  4.6039539E+01 -5.2043003E-01 
        91      6.4456772E-04 -7.9380872E-03  4.5470360E+01  2.4646299E+00 
        92      2.3295583E-04 -8.0780050E-03  4.5996624E+01  8.9187944E-01 
        93     -4.8852957E-04 -7.9946134E-03  4.5682503E+01 -1.8681736E+00 
        94     -1.7817635E-04 -9.4919996E-05  3.4298229E+00 -4.9529419E+00 
        95      2.7785136E-05 -4.0184332E-05  2.8488352E+00  1.0514250E+00 
        96      2.0076980E-05 -7.4767901E-03  4.3743683E+01  7.6265253E-02 
        97     -1.2231069E-03 -8.0289872E-03  4.5805325E+01 -4.6478081E+00 
        98      2.0043678E-06 -2.0126582E-05  2.0796854E+00  1.8736967E-01 
        99     -8.2260609E-05 -6.6609536E-05  3.4068537E+00 -2.4634879E+00 
       100      4.0905160E-05 -9.3724764E-05  4.1945686E+00  1.0188240E+00 
       101     -3.7572070E-05 -6.0528643E-05  3.4126792E+00 -1.1570627E+00 
       102      5.3214398E-04 -7.6135777E-03  4.4256100E+01  2.0387437E+00 
       103     -9.8378150E-04 -7.4348301E-03  4.3583347E+01 -3.7691162E+00 
       104      8.1064779E-05 -5.8796257E-05  3.2108397E+00  2.6146183E+00 
       105     -8.4485308E-04 -2.7318039E-03  2.4037874E+01 -4.2798095E+00 
       106      1.5613491E-04 -9.1708731E-05  3.6037605E+00  4.1965361E+00 
       107      2.1398848E-04 -1.9273858E-04  5.7097192E+00  3.7142587E+00 
       108     -5.9349279E-04 -1.1009216E-03  1.4537290E+01 -4.4059739E+00 
       109      8.2632169E-04 -2.7986213E-03  2.4369663E+01  4.1475692E+00 
       110     -7.7518865E-04 -2.3417191E-03  2.2048966E+01 -4.1653051E+00 
       111     -7.1558478E-04 -1.9768509E-03  2.0062670E+01 -4.1253071E+00 
       112     -6.9236074E-04 -1.6527425E-03  1.8173576E+01 -4.3021345E+00 
       113     -6.5643371E-04 -1.3620634E-03  1.6334633E+01 -4.4299154E+00 
       114     -5.2145274E-04 -8.6240008E-04  1.2727713E+01 -4.3275213E+00 
       115     -4.5002032E-04 -6.4573367E-04  1.0869047E+01 -4.2939525E+00 
       116      4.0258996E-04 -5.0810966E-04  9.5409546E+00  4.3149924E+00 
       117      3.1919943E-04 -3.4275438E-04  7.7157001E+00  4.1592264E+00 
       118      4.7246322E-04 -6.9747836E-04  1.1336968E+01  4.3412900E+00 
       119      5.3172039E-04 -9.1557061E-04  1.3148979E+01  4.2948766E+00 
       120      5.8801819E-04 -1.1636456E-03  1.4987962E+01  4.2561097E+00 
       121      6.4932286E-04 -1.4372384E-03  1.6828081E+01  4.2777324E+00 
       122      7.0974749E-04 -1.7373144E-03  1.8681027E+01  4.3080473E+00 
       123      7.5884501E-04 -2.0610517E-03  2.0532452E+01  4.2926512E+00 
       124      7.9497970E-04 -2.4116384E-03  2.2412983E+01  4.2253051E+00 
       125     -3.9670461E-04 -4.6157923E-04  9.0432968E+00 -4.4684544E+00 
       126     -3.3282215E-04 -3.1136020E-04  7.2409716E+00 -4.5958247E+00 
       127      1.0667986E-03 -7.8782476E-03  4.5243759E+01  4.0643706E+00 
       128     -2.4338052E-04 -1.7857063E-04  5.2935171E+00 -4.5165696E+00 
       129      3.3247679E-04 -7.3103030E-03  4.3117073E+01  1.2796977E+00 
       130     -1.3048380E-04 -1.5336264E-04  5.2176542E+00 -2.4529159E+00 
       131     -1.1054250E-05 -1.2671945E-04  4.9237380E+00 -2.4628760E-01 
       132      2.9672926E-04 -7.0667632E-04  1.1546284E+01  2.6922612E+00 
       133      3.1873902E-04 -9.2211355E-04  1.3313238E+01  2.5609324E+00 
       134      3.9870546E-04 -1.4597703E-03  1.7055363E+01  2.6010797E+00 
       135     -2.3406879E-04 -5.9566610E-04  1.0581842E+01 -2.3105485E+00 
       136      2.5777514E-04 -5.2627254E-04  9.8736725E+00  2.6948094E+00 
       137     -2.5437109E-04 -4.1640239E-04  8.7171631E+00 -2.9586330E+00 
       138      2.0458357E-04 -3.7794573E-04  8.2981367E+00  2.5081003E+00 
       139     -4.5052082E-04 -2.3303860E-03  2.2043898E+01 -2.4298282E+00 
       140      3.4384897E-04 -1.1812089E-03  1.5203857E+01  2.4649215E+00 
       141     -3.1268060E-04 -8.4318943E-04  1.2686162E+01 -2.6179690E+00 
       142      1.4132387E-04 -2.6334708E-04  6.9211426E+00  2.0169182E+00 
       143     -3.8070917E-04 -1.0768818E-03  1.4452872E+01 -2.8475814E+00 
       144     -4.3510819E-04 -1.3141146E-03  1.6095152E+01 -2.9811420E+00 
       145     -4.2798637E-04 -1.5767121E-03  1.7775898E+01 -2.7115257E+00 
       146     -3.6333399E-04 -1.9062640E-03  1.9743872E+01 -2.1297534E+00 
       147      4.4976366E-04 -1.7597328E-03  1.8878681E+01  2.7152059E+00 
       148      4.7376514E-04 -2.0765226E-03  2.0674559E+01  2.6741404E+00 
       149      4.7718092E-04 -2.4241171E-03  2.2528027E+01  2.5323572E+00 
       150     -5.1342252E-04 -2.7211966E-03  2.4028194E+01 -2.6043069E+00 
       151     -2.0123559E-04 -7.8501790E-03  4.5143555E+01 -7.7095050E-01 
       152     -9.0340522E-04 -3.1852366E-03  2.6226099E+01 -4.3246851E+00 
       153     -9.6029904E-05 -2.3064000E-04  6.5436463E+00 -1.4950458E+00 
       154      9.9639818E-04 -7.3837435E-03  4.3389580E+01  3.8186803E+00 
       155      5.6390809E-05 -1.8938882E-04  5.9533019E+00  9.5830578E-01 
       156     -1.4004083E-04 -2.3694502E-03  2.2272738E+01 -7.5250006E-01 
       157      1.9894692E-04 -2.0771716E-03  2.0705513E+01  1.1246325E+00 
       158      9.9412144E-05 -1.2681431E-04  4.7703276E+00  2.0885871E+00 
       159     -2.2438706E-04 -2.8676492E-04  7.0949607E+00 -3.1656079E+00 
       160      1.0303714E-04 -9.1679761E-04  1.3323787E+01  8.2431865E-01 
       161     -1.7125690E-04 -1.0993994E-03  1.4666197E+01 -1.2612095E+00 
       162      1.1725273E-04 -7.0646924E-04  1.1608928E+01  1.0655373E+00 
       163      6.3954723E-05 -1.2125691E-03  1.5481214E+01  4.4461766E-01 
       164     -1.1104394E-04 -8.7485598E-04  1.3003430E+01 -9.1302299E-01 
       165      1.1571985E-04 -5.4220004E-04  1.0108319E+01  1.1755480E+00 
       166     -1.7052804E-04 -1.4305451E-03  1.6902498E+01 -1.1480550E+00 
       167     -7.9439438E-05 -2.0403987E-03  2.0507025E+01 -4.4486901E-01 
       168     -8.7718871E-05 -1.6521702E-03  1.8277994E+01 -5.6099826E-01 
       169      8.7805025E-05 -4.1577670E-04  8.7913027E+00  9.9953687E-01 
       170      2.1068130E-04 -1.7858774E-03  1.9063168E+01  1.2662858E+00 
       171      1.5662460E-04 -1.5108648E-03  1.7411900E+01  1.0057499E+00 
       172     -5.6351749E-05 -4.3278898E-04  9.0160656E+00 -6.9206756E-01 
       173      4.6244592E-04 -2.8224217E-03  2.4536058E+01  2.3164344E+00 
       174     -5.4681863E-04 -3.1279062E-03  2.5997381E+01 -2.6378188E+00 
       175      9.7543992E-04 -4.7147430E-03  3.2938057E+01  4.1067619E+00 
       176      1.0032771E-03 -5.2355483E-03  3.5064720E+01  4.1060782E+00 
       177      1.0165015E-03 -5.7714971E-03  3.7197990E+01  4.0646043E+00 
       178      1.0537447E-03 -6.8285667E-03  4.1284554E+01  4.0776277E+00 
       179      8.9686218E-04 -3.7120081E-03  2.8636866E+01  4.0691981E+00 
       180      9.3831636E-04 -4.2076350E-03  3.0803051E+01  4.0862708E+00 
       181      8.5817393E-04 -3.2382846E-03  2.6475746E+01  4.0829248E+00 
       182      1.0243731E-03 -6.3049604E-03  3.9275547E+01  4.0203590E+00 
       183     -9.2749260E-04 -3.6680998E-03  2.8439115E+01 -4.2291646E+00 
       184     -4.3219022E-06 -2.8270816E-04  7.2434554E+00 -9.3431450E-02 
       185     -4.0974029E-06 -5.4630069E-04  1.0157364E+01 -5.3605259E-02 
       186      7.0492675E-05 -3.1937905E-04  7.6794343E+00  9.2571312E-01 
       187     -6.4115041E-05 -6.7777320E-04  1.1356538E+01 -5.8447516E-01 
       188     -1.8827689E-04 -2.7338410E-03  2.4115339E+01 -9.5434344E-01 
       189      1.6886614E-04 -2.4089755E-03  2.2474081E+01  8.9985329E-01 
       190      4.3753427E-04 -3.2813174E-03  2.6718796E+01  2.0735328E+00 
       191      5.8314893E-04 -6.8127205E-03  4.1231358E+01  2.2631311E+00 
       192     -4.9630395E-04 -3.5372868E-03  2.7888376E+01 -2.2993732E+00 
       193      5.4424611E-04 -5.2706696E-03  3.5226517E+01  2.2260289E+00 
       194      4.5697583E-04 -3.7740189E-03  2.8951363E+01  2.0600989E+00 
       195      5.2396766E-04 -4.7757045E-03  3.3214451E+01  2.1999171E+00 
       196      4.9043895E-04 -4.2777979E-03  3.1132450E+01  2.1262095E+00 
       197      4.4663504E-04 -6.3260430E-03  3.9373524E+01  1.7568760E+00 
       198      5.2976465E-04 -5.7823345E-03  3.7257500E+01  2.1200054E+00 
       199      9.7284801E-05 -6.9726567E-03  4.1842167E+01  3.7701729E-01 
       200     -2.5725146E-04 -3.0632415E-03  2.5700983E+01 -1.2462244E+00 
       201      5.5276583E-05 -4.8762875E-03  3.3636128E+01  2.2746441E-01 
       202      2.7417745E-05 -4.3839110E-03  3.1592417E+01  1.1465908E-01 
       203      9.1410915E-05 -5.3213582E-03  3.5436325E+01  3.7214363E-01 
       204     -5.4441568E-05 -6.1502114E-03  3.8695141E+01 -2.1258426E-01 
       205      8.4455318E-05 -5.7482880E-03  3.7129833E+01  3.3849984E-01 
       206      1.2223751E-04 -2.8007338E-03  2.4449238E+01  6.0822546E-01 
       207     -2.1533719E-05 -3.3090704E-03  2.6870106E+01 -1.0900087E-01 
       208     -2.6215612E-04 -5.7327232E-03  3.7063820E+01 -1.0504197E+00 
       209     -4.5866120E-04 -4.5391379E-03  3.2235195E+01 -1.9598144E+00 
       210     -4.6863004E-04 -4.0217716E-03  3.0034292E+01 -2.0782816E+00 
       211     -4.7647835E-04 -6.0422794E-03  3.8272350E+01 -1.8874563E+00 
       212     -3.7460834E-04 -5.4621102E-03  3.5993656E+01 -1.5255129E+00 
       213     -1.0084281E-03 -6.3087538E-03  3.9290646E+01 -3.9610622E+00 
       214     -9.0391979E-04 -5.8297720E-03  3.7430664E+01 -3.6114123E+00 
       215     -6.7800968E-04 -6.4415883E-03  3.9813347E+01 -2.6550875E+00 
       216     -4.0245298E-04 -6.9233526E-03  4.1654365E+01 -1.5591335E+00 
       217     -9.5108539E-04 -5.2734583E-03  3.5219208E+01 -3.8892505E+00 
       218     -9.4200968E-04 -4.1832903E-03  3.0696714E+01 -4.1170549E+00 
       219     -4.4257209E-04 -5.0490808E-03  3.4333538E+01 -1.8362123E+00 
       220     -9.5490698E-04 -4.7222723E-03  3.2969376E+01 -4.0238686E+00 
       221     -9.0746334E-04 -6.8925136E-03  4.1531754E+01 -3.5090365E+00 
       222     -2.6347370E-04 -6.5308203E-03  4.0161308E+01 -1.0287484E+00 
       223     -4.4884964E-04 -7.2826405E-03  4.3012245E+01 -1.7284201E+00 
       224     -9.6106841E-05 -7.2490542E-03  4.2886528E+01 -3.7188232E-01 
       225     -6.2507544E-05 -2.0769431E-05  1.5150280E+00 -4.2322888E+00 
       226      7.5502749E-05 -2.6963375E-05  1.7703260E+00  4.4197607E+00 
       227      1.3059435E-03 -8.2876817E-03  4.6763733E+01  4.9469504E+00 
       228     -1.1775853E-04 -6.2249615E-05  2.9522507E+00 -3.9525344E+00 
       229     -3.7516691E-05 -3.1184855E-05  2.4898534E+00 -1.6524084E+00 
       230     -1.3603565E-05 -2.4616771E-05  2.2976580E+00 -6.1982894E-01 
       231     -6.8579475E-04 -7.7797298E-03  4.4878136E+01 -2.6217272E+00 
       232     -3.3282323E-04 -7.5893344E-03  4.4165920E+01 -1.2773310E+00 
       233      6.2913671E-04 -7.1550380E-03  4.2528774E+01  2.4252016E+00 
       234      7.4881407E-05 -8.3638044E-03  4.7071854E+01  2.8623056E-01 
       235     -8.2432563E-06 -5.7792777E-05  3.3810284E+00 -2.5490624E-01 
       236      8.2696829E-05 -6.6278906E-03  4.0530796E+01  3.2165796E-01 
       237     -1.4114695E-04 -1.0982182E-04  4.2193027E+00 -3.3389890E+00 
       238     -1.9829157E-04 -2.0191066E-04  5.8654714E+00 -3.3634791E+00 
       239      1.4760164E-04 -7.7568204E-03  4.4793835E+01  5.6590450E-01 
       240      5.3320611E-06 -3.8665728E-03  2.9371067E+01  2.0772558E-02 
       241     -6.8432722E-05 -9.9512772E-05  4.2703781E+00 -1.6001593E+00 
       242     -1.3792187E-04 -3.6443756E-04  8.1719179E+00 -1.7093954E+00 
       243      1.3532120E-05 -1.8146445E-03  1.9234785E+01  8.0060542E-02 
       244     -2.5856696E-04 -1.2849537E-03  1.5932217E+01 -1.7907095E+00 

 MAXIMUM         1.5923E-03   0.000       48.00       6.000    
 AT NODE                 5           2           3           5

 MINIMUM        -1.5912E-03 -8.6245E-03   0.000      -6.000    
 AT NODE                 3          35           2           1


          THE ANALYSIS HAS BEEN COMPLETED



                              ANALYSIS COMPLETE
                              WITH      1 WARNING MESSAGES ON THE DAT FILE



     JOB TIME SUMMARY
       USER TIME (SEC)      =  0.20000    
       SYSTEM TIME (SEC)    =  0.20000    
       TOTAL CPU TIME (SEC) =  0.40000    
       WALLCLOCK TIME (SEC) =          1
