1

   Abaqus 3DEXPERIENCE R2018x                                  Date 11-May-2020   Time 16:19:53
   For use by Supplied by Team-SolidSQUAD under license from Dassault Systemes or its subsidiary.



                         The Abaqus Software is a product of:

                           Dassault Systemes SIMULIA Corp.
                           1301 Atwood Avenue, Suite 101W
                              Johnston, RI 02919, USA
 


                   The Abaqus Software is available only under license
                   from Dassault Systemes or its subsidiary and may be
                   used or reproduced only in accordance with the terms
                   of such license.
 
                          On machine DESKTOP-NVH18H4 
                          you are authorized to run
                          Abaqus/Standard until 31-Dec-2055

                          Your site id is:  


 
                    For assistance or any other information you may
                    obtain contact information for your local office
                    from the world wide web at:

                      http://www.3ds.com/products/simulia/locations/

 
                * * * * * * * * * * * * * * * * * * * * * * * * * * * * * * 
                *                                                         * 
                *                   *****************                     * 
                *                   *  N O T I C E  *                     * 
                *                   *****************                     * 
                *                                                         * 
                *                                                         * 
                *               Abaqus 3DEXPERIENCE R2018x                * 
                *                                                         * 
                *          BUILD ID: 2017_11_07-22.51.41 127140           * 
                *                                                         * 
                *                                                         * 
                *  Please make sure you are using                         * 
                *  release 3DEXPERIENCE R2018x manuals                    * 
                *  plus the notes accompanying this release.              * 
                *                                                         * 
                *                                                         * 
                *                                                         * 
                *                                                         * 
                * * * * * * * * * * * * * * * * * * * * * * * * * * * * * * 


 



     PROCESSING PART, INSTANCE, AND ASSEMBLY INFORMATION
   *******************************************************


     END PROCESSING PART, INSTANCE, AND ASSEMBLY INFORMATION
   ***********************************************************

1

   Abaqus 3DEXPERIENCE R2018x                                  Date 11-May-2020   Time 16:19:53
   For use by Supplied by Team-SolidSQUAD under license from Dassault Systemes or its subsidiary.

                                                                                     

                                             A B A Q U S   I N P U T   E C H O


                    *Heading
                    Plane Stress Linear Static analysis of Beam under Parabolic Loading     
                    *preprint, echo=YES, history=NO, model=NO       
                    ** ----------------------------------------------------------------     
     LINE     5     ** PART INSTANCE: PART-1-1      
                    **      
                    *Node   
                    1, 0, -6, 0     
                    2, 1, -6, 0     
     LINE    10     3, 2, -6, 0     
                    4, 3, -6, 0     
                    5, 4, -6, 0     
                    6, 5, -6, 0     
                    7, 6, -6, 0     
     LINE    15     8, 7, -6, 0     
                    9, 8, -6, 0     
                    10, 9, -6, 0    
                    11, 10, -6, 0   
                    12, 11, -6, 0   
     LINE    20     13, 12, -6, 0   
                    14, 13, -6, 0   
                    15, 14, -6, 0   
                    16, 15, -6, 0   
                    17, 16, -6, 0   
     LINE    25     18, 17, -6, 0   
                    19, 18, -6, 0   
                    20, 19, -6, 0   
                    21, 20, -6, 0   
                    22, 21, -6, 0   
     LINE    30     23, 22, -6, 0   
                    24, 23, -6, 0   
                    25, 24, -6, 0   
                    26, 25, -6, 0   
                    27, 26, -6, 0   
     LINE    35     28, 27, -6, 0   
                    29, 28, -6, 0   
                    30, 29, -6, 0   
                    31, 30, -6, 0   
                    32, 31, -6, 0   
     LINE    40     33, 32, -6, 0   
                    34, 33, -6, 0   
                    35, 34, -6, 0   
                    36, 35, -6, 0   
                    37, 36, -6, 0   
     LINE    45     38, 37, -6, 0   
                    39, 38, -6, 0   
                    40, 39, -6, 0   
                    41, 40, -6, 0   
                    42, 41, -6, 0   
     LINE    50     43, 42, -6, 0   
                    44, 43, -6, 0   
                    45, 44, -6, 0   
                    46, 45, -6, 0   
                    47, 46, -6, 0   
     LINE    55     48, 47, -6, 0   
                    49, 48, -6, 0   
                    50, 0, -5, 0    
                    51, 1, -5, 0    
                    52, 2, -5, 0    
     LINE    60     53, 3, -5, 0    
                    54, 4, -5, 0    
                    55, 5, -5, 0    
                    56, 6, -5, 0    
                    57, 7, -5, 0    
     LINE    65     58, 8, -5, 0    
                    59, 9, -5, 0    
                    60, 10, -5, 0   
                    61, 11, -5, 0   
                    62, 12, -5, 0   
     LINE    70     63, 13, -5, 0   
                    64, 14, -5, 0   
                    65, 15, -5, 0   
                    66, 16, -5, 0   
                    67, 17, -5, 0   
     LINE    75     68, 18, -5, 0   
                    69, 19, -5, 0   
                    70, 20, -5, 0   
                    71, 21, -5, 0   
                    72, 22, -5, 0   
     LINE    80     73, 23, -5, 0   
                    74, 24, -5, 0   
                    75, 25, -5, 0   
                    76, 26, -5, 0   
                    77, 27, -5, 0   
     LINE    85     78, 28, -5, 0   
                    79, 29, -5, 0   
                    80, 30, -5, 0   
                    81, 31, -5, 0   
                    82, 32, -5, 0   
     LINE    90     83, 33, -5, 0   
                    84, 34, -5, 0   
                    85, 35, -5, 0   
                    86, 36, -5, 0   
                    87, 37, -5, 0   
     LINE    95     88, 38, -5, 0   
                    89, 39, -5, 0   
                    90, 40, -5, 0   
                    91, 41, -5, 0   
                    92, 42, -5, 0   
     LINE   100     93, 43, -5, 0   
                    94, 44, -5, 0   
                    95, 45, -5, 0   
                    96, 46, -5, 0   
                    97, 47, -5, 0   
     LINE   105     98, 48, -5, 0   
                    99, 0, -4, 0    
                    100, 1, -4, 0   
                    101, 2, -4, 0   
                    102, 3, -4, 0   
     LINE   110     103, 4, -4, 0   
                    104, 5, -4, 0   
                    105, 6, -4, 0   
                    106, 7, -4, 0   
                    107, 8, -4, 0   
     LINE   115     108, 9, -4, 0   
                    109, 10, -4, 0  
                    110, 11, -4, 0  
                    111, 12, -4, 0  
                    112, 13, -4, 0  
     LINE   120     113, 14, -4, 0  
                    114, 15, -4, 0  
                    115, 16, -4, 0  
                    116, 17, -4, 0  
                    117, 18, -4, 0  
     LINE   125     118, 19, -4, 0  
                    119, 20, -4, 0  
                    120, 21, -4, 0  
                    121, 22, -4, 0  
                    122, 23, -4, 0  
     LINE   130     123, 24, -4, 0  
                    124, 25, -4, 0  
                    125, 26, -4, 0  
                    126, 27, -4, 0  
                    127, 28, -4, 0  
     LINE   135     128, 29, -4, 0  
                    129, 30, -4, 0  
                    130, 31, -4, 0  
                    131, 32, -4, 0  
                    132, 33, -4, 0  
     LINE   140     133, 34, -4, 0  
                    134, 35, -4, 0  
                    135, 36, -4, 0  
                    136, 37, -4, 0  
                    137, 38, -4, 0  
     LINE   145     138, 39, -4, 0  
                    139, 40, -4, 0  
                    140, 41, -4, 0  
                    141, 42, -4, 0  
                    142, 43, -4, 0  
     LINE   150     143, 44, -4, 0  
                    144, 45, -4, 0  
                    145, 46, -4, 0  
                    146, 47, -4, 0  
                    147, 48, -4, 0  
     LINE   155     148, 0, -3, 0   
                    149, 1, -3, 0   
                    150, 2, -3, 0   
                    151, 3, -3, 0   
                    152, 4, -3, 0   
     LINE   160     153, 5, -3, 0   
                    154, 6, -3, 0   
                    155, 7, -3, 0   
                    156, 8, -3, 0   
                    157, 9, -3, 0   
     LINE   165     158, 10, -3, 0  
                    159, 11, -3, 0  
                    160, 12, -3, 0  
                    161, 13, -3, 0  
                    162, 14, -3, 0  
     LINE   170     163, 15, -3, 0  
                    164, 16, -3, 0  
                    165, 17, -3, 0  
                    166, 18, -3, 0  
                    167, 19, -3, 0  
     LINE   175     168, 20, -3, 0  
                    169, 21, -3, 0  
                    170, 22, -3, 0  
                    171, 23, -3, 0  
                    172, 24, -3, 0  
     LINE   180     173, 25, -3, 0  
                    174, 26, -3, 0  
                    175, 27, -3, 0  
                    176, 28, -3, 0  
                    177, 29, -3, 0  
     LINE   185     178, 30, -3, 0  
                    179, 31, -3, 0  
                    180, 32, -3, 0  
                    181, 33, -3, 0  
                    182, 34, -3, 0  
     LINE   190     183, 35, -3, 0  
                    184, 36, -3, 0  
                    185, 37, -3, 0  
                    186, 38, -3, 0  
                    187, 39, -3, 0  
     LINE   195     188, 40, -3, 0  
                    189, 41, -3, 0  
                    190, 42, -3, 0  
                    191, 43, -3, 0  
                    192, 44, -3, 0  
     LINE   200     193, 45, -3, 0  
                    194, 46, -3, 0  
                    195, 47, -3, 0  
                    196, 48, -3, 0  
                    197, 0, -2, 0   
     LINE   205     198, 1, -2, 0   
                    199, 2, -2, 0   
                    200, 3, -2, 0   
                    201, 4, -2, 0   
                    202, 5, -2, 0   
     LINE   210     203, 6, -2, 0   
                    204, 7, -2, 0   
                    205, 8, -2, 0   
                    206, 9, -2, 0   
                    207, 10, -2, 0  
     LINE   215     208, 11, -2, 0  
                    209, 12, -2, 0  
                    210, 13, -2, 0  
                    211, 14, -2, 0  
                    212, 15, -2, 0  
     LINE   220     213, 16, -2, 0  
                    214, 17, -2, 0  
                    215, 18, -2, 0  
                    216, 19, -2, 0  
                    217, 20, -2, 0  
     LINE   225     218, 21, -2, 0  
                    219, 22, -2, 0  
                    220, 23, -2, 0  
                    221, 24, -2, 0  
                    222, 25, -2, 0  
     LINE   230     223, 26, -2, 0  
                    224, 27, -2, 0  
                    225, 28, -2, 0  
                    226, 29, -2, 0  
                    227, 30, -2, 0  
     LINE   235     228, 31, -2, 0  
                    229, 32, -2, 0  
                    230, 33, -2, 0  
                    231, 34, -2, 0  
                    232, 35, -2, 0  
     LINE   240     233, 36, -2, 0  
                    234, 37, -2, 0  
                    235, 38, -2, 0  
                    236, 39, -2, 0  
                    237, 40, -2, 0  
     LINE   245     238, 41, -2, 0  
                    239, 42, -2, 0  
                    240, 43, -2, 0  
                    241, 44, -2, 0  
                    242, 45, -2, 0  
     LINE   250     243, 46, -2, 0  
                    244, 47, -2, 0  
                    245, 48, -2, 0  
                    246, 0, -1, 0   
                    247, 1, -1, 0   
     LINE   255     248, 2, -1, 0   
                    249, 3, -1, 0   
                    250, 4, -1, 0   
                    251, 5, -1, 0   
                    252, 6, -1, 0   
     LINE   260     253, 7, -1, 0   
                    254, 8, -1, 0   
                    255, 9, -1, 0   
                    256, 10, -1, 0  
                    257, 11, -1, 0  
     LINE   265     258, 12, -1, 0  
                    259, 13, -1, 0  
                    260, 14, -1, 0  
                    261, 15, -1, 0  
                    262, 16, -1, 0  
     LINE   270     263, 17, -1, 0  
                    264, 18, -1, 0  
                    265, 19, -1, 0  
                    266, 20, -1, 0  
                    267, 21, -1, 0  
     LINE   275     268, 22, -1, 0  
                    269, 23, -1, 0  
                    270, 24, -1, 0  
                    271, 25, -1, 0  
                    272, 26, -1, 0  
     LINE   280     273, 27, -1, 0  
                    274, 28, -1, 0  
                    275, 29, -1, 0  
                    276, 30, -1, 0  
                    277, 31, -1, 0  
     LINE   285     278, 32, -1, 0  
                    279, 33, -1, 0  
                    280, 34, -1, 0  
                    281, 35, -1, 0  
                    282, 36, -1, 0  
     LINE   290     283, 37, -1, 0  
                    284, 38, -1, 0  
                    285, 39, -1, 0  
                    286, 40, -1, 0  
                    287, 41, -1, 0  
     LINE   295     288, 42, -1, 0  
                    289, 43, -1, 0  
                    290, 44, -1, 0  
                    291, 45, -1, 0  
                    292, 46, -1, 0  
     LINE   300     293, 47, -1, 0  
                    294, 48, -1, 0  
                    295, 0, 0, 0    
                    296, 1, 0, 0    
                    297, 2, 0, 0    
     LINE   305     298, 3, 0, 0    
                    299, 4, 0, 0    
                    300, 5, 0, 0    
                    301, 6, 0, 0    
                    302, 7, 0, 0    
     LINE   310     303, 8, 0, 0    
                    304, 9, 0, 0    
                    305, 10, 0, 0   
                    306, 11, 0, 0   
                    307, 12, 0, 0   
     LINE   315     308, 13, 0, 0   
                    309, 14, 0, 0   
                    310, 15, 0, 0   
                    311, 16, 0, 0   
                    312, 17, 0, 0   
     LINE   320     313, 18, 0, 0   
                    314, 19, 0, 0   
                    315, 20, 0, 0   
                    316, 21, 0, 0   
                    317, 22, 0, 0   
     LINE   325     318, 23, 0, 0   
                    319, 24, 0, 0   
                    320, 25, 0, 0   
                    321, 26, 0, 0   
                    322, 27, 0, 0   
     LINE   330     323, 28, 0, 0   
                    324, 29, 0, 0   
                    325, 30, 0, 0   
                    326, 31, 0, 0   
                    327, 32, 0, 0   
     LINE   335     328, 33, 0, 0   
                    329, 34, 0, 0   
                    330, 35, 0, 0   
                    331, 36, 0, 0   
                    332, 37, 0, 0   
     LINE   340     333, 38, 0, 0   
                    334, 39, 0, 0   
                    335, 40, 0, 0   
                    336, 41, 0, 0   
                    337, 42, 0, 0   
     LINE   345     338, 43, 0, 0   
                    339, 44, 0, 0   
                    340, 45, 0, 0   
                    341, 46, 0, 0   
                    342, 47, 0, 0   
     LINE   350     343, 48, 0, 0   
                    344, 0, 1, 0    
                    345, 1, 1, 0    
                    346, 2, 1, 0    
                    347, 3, 1, 0    
     LINE   355     348, 4, 1, 0    
                    349, 5, 1, 0    
                    350, 6, 1, 0    
                    351, 7, 1, 0    
                    352, 8, 1, 0    
     LINE   360     353, 9, 1, 0    
                    354, 10, 1, 0   
                    355, 11, 1, 0   
                    356, 12, 1, 0   
                    357, 13, 1, 0   
     LINE   365     358, 14, 1, 0   
                    359, 15, 1, 0   
                    360, 16, 1, 0   
                    361, 17, 1, 0   
                    362, 18, 1, 0   
     LINE   370     363, 19, 1, 0   
                    364, 20, 1, 0   
                    365, 21, 1, 0   
                    366, 22, 1, 0   
                    367, 23, 1, 0   
     LINE   375     368, 24, 1, 0   
                    369, 25, 1, 0   
                    370, 26, 1, 0   
                    371, 27, 1, 0   
                    372, 28, 1, 0   
     LINE   380     373, 29, 1, 0   
                    374, 30, 1, 0   
                    375, 31, 1, 0   
                    376, 32, 1, 0   
                    377, 33, 1, 0   
     LINE   385     378, 34, 1, 0   
                    379, 35, 1, 0   
                    380, 36, 1, 0   
                    381, 37, 1, 0   
                    382, 38, 1, 0   
     LINE   390     383, 39, 1, 0   
                    384, 40, 1, 0   
                    385, 41, 1, 0   
                    386, 42, 1, 0   
                    387, 43, 1, 0   
     LINE   395     388, 44, 1, 0   
                    389, 45, 1, 0   
                    390, 46, 1, 0   
                    391, 47, 1, 0   
                    392, 48, 1, 0   
     LINE   400     393, 0, 2, 0    
                    394, 1, 2, 0    
                    395, 2, 2, 0    
                    396, 3, 2, 0    
                    397, 4, 2, 0    
     LINE   405     398, 5, 2, 0    
                    399, 6, 2, 0    
                    400, 7, 2, 0    
                    401, 8, 2, 0    
                    402, 9, 2, 0    
     LINE   410     403, 10, 2, 0   
                    404, 11, 2, 0   
                    405, 12, 2, 0   
                    406, 13, 2, 0   
                    407, 14, 2, 0   
     LINE   415     408, 15, 2, 0   
                    409, 16, 2, 0   
                    410, 17, 2, 0   
                    411, 18, 2, 0   
                    412, 19, 2, 0   
     LINE   420     413, 20, 2, 0   
                    414, 21, 2, 0   
                    415, 22, 2, 0   
                    416, 23, 2, 0   
                    417, 24, 2, 0   
     LINE   425     418, 25, 2, 0   
                    419, 26, 2, 0   
                    420, 27, 2, 0   
                    421, 28, 2, 0   
                    422, 29, 2, 0   
     LINE   430     423, 30, 2, 0   
                    424, 31, 2, 0   
                    425, 32, 2, 0   
                    426, 33, 2, 0   
                    427, 34, 2, 0   
     LINE   435     428, 35, 2, 0   
                    429, 36, 2, 0   
                    430, 37, 2, 0   
                    431, 38, 2, 0   
                    432, 39, 2, 0   
     LINE   440     433, 40, 2, 0   
                    434, 41, 2, 0   
                    435, 42, 2, 0   
                    436, 43, 2, 0   
                    437, 44, 2, 0   
     LINE   445     438, 45, 2, 0   
                    439, 46, 2, 0   
                    440, 47, 2, 0   
                    441, 48, 2, 0   
                    442, 0, 3, 0    
     LINE   450     443, 1, 3, 0    
                    444, 2, 3, 0    
                    445, 3, 3, 0    
                    446, 4, 3, 0    
                    447, 5, 3, 0    
     LINE   455     448, 6, 3, 0    
                    449, 7, 3, 0    
                    450, 8, 3, 0    
                    451, 9, 3, 0    
                    452, 10, 3, 0   
     LINE   460     453, 11, 3, 0   
                    454, 12, 3, 0   
                    455, 13, 3, 0   
                    456, 14, 3, 0   
                    457, 15, 3, 0   
     LINE   465     458, 16, 3, 0   
                    459, 17, 3, 0   
                    460, 18, 3, 0   
                    461, 19, 3, 0   
                    462, 20, 3, 0   
     LINE   470     463, 21, 3, 0   
                    464, 22, 3, 0   
                    465, 23, 3, 0   
                    466, 24, 3, 0   
                    467, 25, 3, 0   
     LINE   475     468, 26, 3, 0   
                    469, 27, 3, 0   
                    470, 28, 3, 0   
                    471, 29, 3, 0   
                    472, 30, 3, 0   
     LINE   480     473, 31, 3, 0   
                    474, 32, 3, 0   
                    475, 33, 3, 0   
                    476, 34, 3, 0   
                    477, 35, 3, 0   
     LINE   485     478, 36, 3, 0   
                    479, 37, 3, 0   
                    480, 38, 3, 0   
                    481, 39, 3, 0   
                    482, 40, 3, 0   
     LINE   490     483, 41, 3, 0   
                    484, 42, 3, 0   
                    485, 43, 3, 0   
                    486, 44, 3, 0   
                    487, 45, 3, 0   
     LINE   495     488, 46, 3, 0   
                    489, 47, 3, 0   
                    490, 48, 3, 0   
                    491, 0, 4, 0    
                    492, 1, 4, 0    
     LINE   500     493, 2, 4, 0    
                    494, 3, 4, 0    
                    495, 4, 4, 0    
                    496, 5, 4, 0    
                    497, 6, 4, 0    
     LINE   505     498, 7, 4, 0    
                    499, 8, 4, 0    
                    500, 9, 4, 0    
                    501, 10, 4, 0   
                    502, 11, 4, 0   
     LINE   510     503, 12, 4, 0   
                    504, 13, 4, 0   
                    505, 14, 4, 0   
                    506, 15, 4, 0   
                    507, 16, 4, 0   
     LINE   515     508, 17, 4, 0   
                    509, 18, 4, 0   
                    510, 19, 4, 0   
                    511, 20, 4, 0   
                    512, 21, 4, 0   
     LINE   520     513, 22, 4, 0   
                    514, 23, 4, 0   
                    515, 24, 4, 0   
                    516, 25, 4, 0   
                    517, 26, 4, 0   
     LINE   525     518, 27, 4, 0   
                    519, 28, 4, 0   
                    520, 29, 4, 0   
                    521, 30, 4, 0   
                    522, 31, 4, 0   
     LINE   530     523, 32, 4, 0   
                    524, 33, 4, 0   
                    525, 34, 4, 0   
                    526, 35, 4, 0   
                    527, 36, 4, 0   
     LINE   535     528, 37, 4, 0   
                    529, 38, 4, 0   
                    530, 39, 4, 0   
                    531, 40, 4, 0   
                    532, 41, 4, 0   
     LINE   540     533, 42, 4, 0   
                    534, 43, 4, 0   
                    535, 44, 4, 0   
                    536, 45, 4, 0   
                    537, 46, 4, 0   
     LINE   545     538, 47, 4, 0   
                    539, 48, 4, 0   
                    540, 0, 5, 0    
                    541, 1, 5, 0    
                    542, 2, 5, 0    
     LINE   550     543, 3, 5, 0    
                    544, 4, 5, 0    
                    545, 5, 5, 0    
                    546, 6, 5, 0    
                    547, 7, 5, 0    
     LINE   555     548, 8, 5, 0    
                    549, 9, 5, 0    
                    550, 10, 5, 0   
                    551, 11, 5, 0   
                    552, 12, 5, 0   
     LINE   560     553, 13, 5, 0   
                    554, 14, 5, 0   
                    555, 15, 5, 0   
                    556, 16, 5, 0   
                    557, 17, 5, 0   
     LINE   565     558, 18, 5, 0   
                    559, 19, 5, 0   
                    560, 20, 5, 0   
                    561, 21, 5, 0   
                    562, 22, 5, 0   
     LINE   570     563, 23, 5, 0   
                    564, 24, 5, 0   
                    565, 25, 5, 0   
                    566, 26, 5, 0   
                    567, 27, 5, 0   
     LINE   575     568, 28, 5, 0   
                    569, 29, 5, 0   
                    570, 30, 5, 0   
                    571, 31, 5, 0   
                    572, 32, 5, 0   
     LINE   580     573, 33, 5, 0   
                    574, 34, 5, 0   
                    575, 35, 5, 0   
                    576, 36, 5, 0   
                    577, 37, 5, 0   
     LINE   585     578, 38, 5, 0   
                    579, 39, 5, 0   
                    580, 40, 5, 0   
                    581, 41, 5, 0   
                    582, 42, 5, 0   
     LINE   590     583, 43, 5, 0   
                    584, 44, 5, 0   
                    585, 45, 5, 0   
                    586, 46, 5, 0   
                    587, 47, 5, 0   
     LINE   595     588, 48, 5, 0   
                    589, 0, 6, 0    
                    590, 1, 6, 0    
                    591, 2, 6, 0    
                    592, 3, 6, 0    
     LINE   600     593, 4, 6, 0    
                    594, 5, 6, 0    
                    595, 6, 6, 0    
                    596, 7, 6, 0    
                    597, 8, 6, 0    
     LINE   605     598, 9, 6, 0    
                    599, 10, 6, 0   
                    600, 11, 6, 0   
                    601, 12, 6, 0   
                    602, 13, 6, 0   
     LINE   610     603, 14, 6, 0   
                    604, 15, 6, 0   
                    605, 16, 6, 0   
                    606, 17, 6, 0   
                    607, 18, 6, 0   
     LINE   615     608, 19, 6, 0   
                    609, 20, 6, 0   
                    610, 21, 6, 0   
                    611, 22, 6, 0   
                    612, 23, 6, 0   
     LINE   620     613, 24, 6, 0   
                    614, 25, 6, 0   
                    615, 26, 6, 0   
                    616, 27, 6, 0   
                    617, 28, 6, 0   
     LINE   625     618, 29, 6, 0   
                    619, 30, 6, 0   
                    620, 31, 6, 0   
                    621, 32, 6, 0   
                    622, 33, 6, 0   
     LINE   630     623, 34, 6, 0   
                    624, 35, 6, 0   
                    625, 36, 6, 0   
                    626, 37, 6, 0   
                    627, 38, 6, 0   
     LINE   635     628, 39, 6, 0   
                    629, 40, 6, 0   
                    630, 41, 6, 0   
                    631, 42, 6, 0   
                    632, 43, 6, 0   
     LINE   640     633, 44, 6, 0   
                    634, 45, 6, 0   
                    635, 46, 6, 0   
                    636, 47, 6, 0   
                    637, 48, 6, 0   
     LINE   645     *Element, type=CPS4R    
                    1, 1, 2, 51, 50 
                    2, 2, 3, 52, 51 
                    3, 3, 4, 53, 52 
                    4, 4, 5, 54, 53 
     LINE   650     5, 5, 6, 55, 54 
                    6, 6, 7, 56, 55 
                    7, 7, 8, 57, 56 
                    8, 8, 9, 58, 57 
                    9, 9, 10, 59, 58
     LINE   655     10, 10, 11, 60, 59      
                    11, 11, 12, 61, 60      
                    12, 12, 13, 62, 61      
                    13, 13, 14, 63, 62      
                    14, 14, 15, 64, 63      
     LINE   660     15, 15, 16, 65, 64      
                    16, 16, 17, 66, 65      
                    17, 17, 18, 67, 66      
                    18, 18, 19, 68, 67      
                    19, 19, 20, 69, 68      
     LINE   665     20, 20, 21, 70, 69      
                    21, 21, 22, 71, 70      
                    22, 22, 23, 72, 71      
                    23, 23, 24, 73, 72      
                    24, 24, 25, 74, 73      
     LINE   670     25, 25, 26, 75, 74      
                    26, 26, 27, 76, 75      
                    27, 27, 28, 77, 76      
                    28, 28, 29, 78, 77      
                    29, 29, 30, 79, 78      
     LINE   675     30, 30, 31, 80, 79      
                    31, 31, 32, 81, 80      
                    32, 32, 33, 82, 81      
                    33, 33, 34, 83, 82      
                    34, 34, 35, 84, 83      
     LINE   680     35, 35, 36, 85, 84      
                    36, 36, 37, 86, 85      
                    37, 37, 38, 87, 86      
                    38, 38, 39, 88, 87      
                    39, 39, 40, 89, 88      
     LINE   685     40, 40, 41, 90, 89      
                    41, 41, 42, 91, 90      
                    42, 42, 43, 92, 91      
                    43, 43, 44, 93, 92      
                    44, 44, 45, 94, 93      
     LINE   690     45, 45, 46, 95, 94      
                    46, 46, 47, 96, 95      
                    47, 47, 48, 97, 96      
                    48, 48, 49, 98, 97      
                    49, 50, 51, 100, 99     
     LINE   695     50, 51, 52, 101, 100    
                    51, 52, 53, 102, 101    
                    52, 53, 54, 103, 102    
                    53, 54, 55, 104, 103    
                    54, 55, 56, 105, 104    
     LINE   700     55, 56, 57, 106, 105    
                    56, 57, 58, 107, 106    
                    57, 58, 59, 108, 107    
                    58, 59, 60, 109, 108    
                    59, 60, 61, 110, 109    
     LINE   705     60, 61, 62, 111, 110    
                    61, 62, 63, 112, 111    
                    62, 63, 64, 113, 112    
                    63, 64, 65, 114, 113    
                    64, 65, 66, 115, 114    
     LINE   710     65, 66, 67, 116, 115    
                    66, 67, 68, 117, 116    
                    67, 68, 69, 118, 117    
                    68, 69, 70, 119, 118    
                    69, 70, 71, 120, 119    
     LINE   715     70, 71, 72, 121, 120    
                    71, 72, 73, 122, 121    
                    72, 73, 74, 123, 122    
                    73, 74, 75, 124, 123    
                    74, 75, 76, 125, 124    
     LINE   720     75, 76, 77, 126, 125    
                    76, 77, 78, 127, 126    
                    77, 78, 79, 128, 127    
                    78, 79, 80, 129, 128    
                    79, 80, 81, 130, 129    
     LINE   725     80, 81, 82, 131, 130    
                    81, 82, 83, 132, 131    
                    82, 83, 84, 133, 132    
                    83, 84, 85, 134, 133    
                    84, 85, 86, 135, 134    
     LINE   730     85, 86, 87, 136, 135    
                    86, 87, 88, 137, 136    
                    87, 88, 89, 138, 137    
                    88, 89, 90, 139, 138    
                    89, 90, 91, 140, 139    
     LINE   735     90, 91, 92, 141, 140    
                    91, 92, 93, 142, 141    
                    92, 93, 94, 143, 142    
                    93, 94, 95, 144, 143    
                    94, 95, 96, 145, 144    
     LINE   740     95, 96, 97, 146, 145    
                    96, 97, 98, 147, 146    
                    97, 99, 100, 149, 148   
                    98, 100, 101, 150, 149  
                    99, 101, 102, 151, 150  
     LINE   745     100, 102, 103, 152, 151 
                    101, 103, 104, 153, 152 
                    102, 104, 105, 154, 153 
                    103, 105, 106, 155, 154 
                    104, 106, 107, 156, 155 
     LINE   750     105, 107, 108, 157, 156 
                    106, 108, 109, 158, 157 
                    107, 109, 110, 159, 158 
                    108, 110, 111, 160, 159 
                    109, 111, 112, 161, 160 
     LINE   755     110, 112, 113, 162, 161 
                    111, 113, 114, 163, 162 
                    112, 114, 115, 164, 163 
                    113, 115, 116, 165, 164 
                    114, 116, 117, 166, 165 
     LINE   760     115, 117, 118, 167, 166 
                    116, 118, 119, 168, 167 
                    117, 119, 120, 169, 168 
                    118, 120, 121, 170, 169 
                    119, 121, 122, 171, 170 
     LINE   765     120, 122, 123, 172, 171 
                    121, 123, 124, 173, 172 
                    122, 124, 125, 174, 173 
                    123, 125, 126, 175, 174 
                    124, 126, 127, 176, 175 
     LINE   770     125, 127, 128, 177, 176 
                    126, 128, 129, 178, 177 
                    127, 129, 130, 179, 178 
                    128, 130, 131, 180, 179 
                    129, 131, 132, 181, 180 
     LINE   775     130, 132, 133, 182, 181 
                    131, 133, 134, 183, 182 
                    132, 134, 135, 184, 183 
                    133, 135, 136, 185, 184 
                    134, 136, 137, 186, 185 
     LINE   780     135, 137, 138, 187, 186 
                    136, 138, 139, 188, 187 
                    137, 139, 140, 189, 188 
                    138, 140, 141, 190, 189 
                    139, 141, 142, 191, 190 
     LINE   785     140, 142, 143, 192, 191 
                    141, 143, 144, 193, 192 
                    142, 144, 145, 194, 193 
                    143, 145, 146, 195, 194 
                    144, 146, 147, 196, 195 
     LINE   790     145, 148, 149, 198, 197 
                    146, 149, 150, 199, 198 
                    147, 150, 151, 200, 199 
                    148, 151, 152, 201, 200 
                    149, 152, 153, 202, 201 
     LINE   795     150, 153, 154, 203, 202 
                    151, 154, 155, 204, 203 
                    152, 155, 156, 205, 204 
                    153, 156, 157, 206, 205 
                    154, 157, 158, 207, 206 
     LINE   800     155, 158, 159, 208, 207 
                    156, 159, 160, 209, 208 
                    157, 160, 161, 210, 209 
                    158, 161, 162, 211, 210 
                    159, 162, 163, 212, 211 
     LINE   805     160, 163, 164, 213, 212 
                    161, 164, 165, 214, 213 
                    162, 165, 166, 215, 214 
                    163, 166, 167, 216, 215 
                    164, 167, 168, 217, 216 
     LINE   810     165, 168, 169, 218, 217 
                    166, 169, 170, 219, 218 
                    167, 170, 171, 220, 219 
                    168, 171, 172, 221, 220 
                    169, 172, 173, 222, 221 
     LINE   815     170, 173, 174, 223, 222 
                    171, 174, 175, 224, 223 
                    172, 175, 176, 225, 224 
                    173, 176, 177, 226, 225 
                    174, 177, 178, 227, 226 
     LINE   820     175, 178, 179, 228, 227 
                    176, 179, 180, 229, 228 
                    177, 180, 181, 230, 229 
                    178, 181, 182, 231, 230 
                    179, 182, 183, 232, 231 
     LINE   825     180, 183, 184, 233, 232 
                    181, 184, 185, 234, 233 
                    182, 185, 186, 235, 234 
                    183, 186, 187, 236, 235 
                    184, 187, 188, 237, 236 
     LINE   830     185, 188, 189, 238, 237 
                    186, 189, 190, 239, 238 
                    187, 190, 191, 240, 239 
                    188, 191, 192, 241, 240 
                    189, 192, 193, 242, 241 
     LINE   835     190, 193, 194, 243, 242 
                    191, 194, 195, 244, 243 
                    192, 195, 196, 245, 244 
                    193, 197, 198, 247, 246 
                    194, 198, 199, 248, 247 
     LINE   840     195, 199, 200, 249, 248 
                    196, 200, 201, 250, 249 
                    197, 201, 202, 251, 250 
                    198, 202, 203, 252, 251 
                    199, 203, 204, 253, 252 
     LINE   845     200, 204, 205, 254, 253 
                    201, 205, 206, 255, 254 
                    202, 206, 207, 256, 255 
                    203, 207, 208, 257, 256 
                    204, 208, 209, 258, 257 
     LINE   850     205, 209, 210, 259, 258 
                    206, 210, 211, 260, 259 
                    207, 211, 212, 261, 260 
                    208, 212, 213, 262, 261 
                    209, 213, 214, 263, 262 
     LINE   855     210, 214, 215, 264, 263 
                    211, 215, 216, 265, 264 
                    212, 216, 217, 266, 265 
                    213, 217, 218, 267, 266 
                    214, 218, 219, 268, 267 
     LINE   860     215, 219, 220, 269, 268 
                    216, 220, 221, 270, 269 
                    217, 221, 222, 271, 270 
                    218, 222, 223, 272, 271 
                    219, 223, 224, 273, 272 
     LINE   865     220, 224, 225, 274, 273 
                    221, 225, 226, 275, 274 
                    222, 226, 227, 276, 275 
                    223, 227, 228, 277, 276 
                    224, 228, 229, 278, 277 
     LINE   870     225, 229, 230, 279, 278 
                    226, 230, 231, 280, 279 
                    227, 231, 232, 281, 280 
                    228, 232, 233, 282, 281 
                    229, 233, 234, 283, 282 
     LINE   875     230, 234, 235, 284, 283 
                    231, 235, 236, 285, 284 
                    232, 236, 237, 286, 285 
                    233, 237, 238, 287, 286 
                    234, 238, 239, 288, 287 
     LINE   880     235, 239, 240, 289, 288 
                    236, 240, 241, 290, 289 
                    237, 241, 242, 291, 290 
                    238, 242, 243, 292, 291 
                    239, 243, 244, 293, 292 
     LINE   885     240, 244, 245, 294, 293 
                    241, 246, 247, 296, 295 
                    242, 247, 248, 297, 296 
                    243, 248, 249, 298, 297 
                    244, 249, 250, 299, 298 
     LINE   890     245, 250, 251, 300, 299 
                    246, 251, 252, 301, 300 
                    247, 252, 253, 302, 301 
                    248, 253, 254, 303, 302 
                    249, 254, 255, 304, 303 
     LINE   895     250, 255, 256, 305, 304 
                    251, 256, 257, 306, 305 
                    252, 257, 258, 307, 306 
                    253, 258, 259, 308, 307 
                    254, 259, 260, 309, 308 
     LINE   900     255, 260, 261, 310, 309 
                    256, 261, 262, 311, 310 
                    257, 262, 263, 312, 311 
                    258, 263, 264, 313, 312 
                    259, 264, 265, 314, 313 
     LINE   905     260, 265, 266, 315, 314 
                    261, 266, 267, 316, 315 
                    262, 267, 268, 317, 316 
                    263, 268, 269, 318, 317 
                    264, 269, 270, 319, 318 
     LINE   910     265, 270, 271, 320, 319 
                    266, 271, 272, 321, 320 
                    267, 272, 273, 322, 321 
                    268, 273, 274, 323, 322 
                    269, 274, 275, 324, 323 
     LINE   915     270, 275, 276, 325, 324 
                    271, 276, 277, 326, 325 
                    272, 277, 278, 327, 326 
                    273, 278, 279, 328, 327 
                    274, 279, 280, 329, 328 
     LINE   920     275, 280, 281, 330, 329 
                    276, 281, 282, 331, 330 
                    277, 282, 283, 332, 331 
                    278, 283, 284, 333, 332 
                    279, 284, 285, 334, 333 
     LINE   925     280, 285, 286, 335, 334 
                    281, 286, 287, 336, 335 
                    282, 287, 288, 337, 336 
                    283, 288, 289, 338, 337 
                    284, 289, 290, 339, 338 
     LINE   930     285, 290, 291, 340, 339 
                    286, 291, 292, 341, 340 
                    287, 292, 293, 342, 341 
                    288, 293, 294, 343, 342 
                    289, 295, 296, 345, 344 
     LINE   935     290, 296, 297, 346, 345 
                    291, 297, 298, 347, 346 
                    292, 298, 299, 348, 347 
                    293, 299, 300, 349, 348 
                    294, 300, 301, 350, 349 
     LINE   940     295, 301, 302, 351, 350 
                    296, 302, 303, 352, 351 
                    297, 303, 304, 353, 352 
                    298, 304, 305, 354, 353 
                    299, 305, 306, 355, 354 
     LINE   945     300, 306, 307, 356, 355 
                    301, 307, 308, 357, 356 
                    302, 308, 309, 358, 357 
                    303, 309, 310, 359, 358 
                    304, 310, 311, 360, 359 
     LINE   950     305, 311, 312, 361, 360 
                    306, 312, 313, 362, 361 
                    307, 313, 314, 363, 362 
                    308, 314, 315, 364, 363 
                    309, 315, 316, 365, 364 
     LINE   955     310, 316, 317, 366, 365 
                    311, 317, 318, 367, 366 
                    312, 318, 319, 368, 367 
                    313, 319, 320, 369, 368 
                    314, 320, 321, 370, 369 
     LINE   960     315, 321, 322, 371, 370 
                    316, 322, 323, 372, 371 
                    317, 323, 324, 373, 372 
                    318, 324, 325, 374, 373 
                    319, 325, 326, 375, 374 
     LINE   965     320, 326, 327, 376, 375 
                    321, 327, 328, 377, 376 
                    322, 328, 329, 378, 377 
                    323, 329, 330, 379, 378 
                    324, 330, 331, 380, 379 
     LINE   970     325, 331, 332, 381, 380 
                    326, 332, 333, 382, 381 
                    327, 333, 334, 383, 382 
                    328, 334, 335, 384, 383 
                    329, 335, 336, 385, 384 
     LINE   975     330, 336, 337, 386, 385 
                    331, 337, 338, 387, 386 
                    332, 338, 339, 388, 387 
                    333, 339, 340, 389, 388 
                    334, 340, 341, 390, 389 
     LINE   980     335, 341, 342, 391, 390 
                    336, 342, 343, 392, 391 
                    337, 344, 345, 394, 393 
                    338, 345, 346, 395, 394 
                    339, 346, 347, 396, 395 
     LINE   985     340, 347, 348, 397, 396 
                    341, 348, 349, 398, 397 
                    342, 349, 350, 399, 398 
                    343, 350, 351, 400, 399 
                    344, 351, 352, 401, 400 
     LINE   990     345, 352, 353, 402, 401 
                    346, 353, 354, 403, 402 
                    347, 354, 355, 404, 403 
                    348, 355, 356, 405, 404 
                    349, 356, 357, 406, 405 
     LINE   995     350, 357, 358, 407, 406 
                    351, 358, 359, 408, 407 
                    352, 359, 360, 409, 408 
                    353, 360, 361, 410, 409 
                    354, 361, 362, 411, 410 
     LINE  1000     355, 362, 363, 412, 411 
                    356, 363, 364, 413, 412 
                    357, 364, 365, 414, 413 
                    358, 365, 366, 415, 414 
                    359, 366, 367, 416, 415 
     LINE  1005     360, 367, 368, 417, 416 
                    361, 368, 369, 418, 417 
                    362, 369, 370, 419, 418 
                    363, 370, 371, 420, 419 
                    364, 371, 372, 421, 420 
     LINE  1010     365, 372, 373, 422, 421 
                    366, 373, 374, 423, 422 
                    367, 374, 375, 424, 423 
                    368, 375, 376, 425, 424 
                    369, 376, 377, 426, 425 
     LINE  1015     370, 377, 378, 427, 426 
                    371, 378, 379, 428, 427 
                    372, 379, 380, 429, 428 
                    373, 380, 381, 430, 429 
                    374, 381, 382, 431, 430 
     LINE  1020     375, 382, 383, 432, 431 
                    376, 383, 384, 433, 432 
                    377, 384, 385, 434, 433 
                    378, 385, 386, 435, 434 
                    379, 386, 387, 436, 435 
     LINE  1025     380, 387, 388, 437, 436 
                    381, 388, 389, 438, 437 
                    382, 389, 390, 439, 438 
                    383, 390, 391, 440, 439 
                    384, 391, 392, 441, 440 
     LINE  1030     385, 393, 394, 443, 442 
                    386, 394, 395, 444, 443 
                    387, 395, 396, 445, 444 
                    388, 396, 397, 446, 445 
                    389, 397, 398, 447, 446 
     LINE  1035     390, 398, 399, 448, 447 
                    391, 399, 400, 449, 448 
                    392, 400, 401, 450, 449 
                    393, 401, 402, 451, 450 
                    394, 402, 403, 452, 451 
     LINE  1040     395, 403, 404, 453, 452 
                    396, 404, 405, 454, 453 
                    397, 405, 406, 455, 454 
                    398, 406, 407, 456, 455 
                    399, 407, 408, 457, 456 
     LINE  1045     400, 408, 409, 458, 457 
                    401, 409, 410, 459, 458 
                    402, 410, 411, 460, 459 
                    403, 411, 412, 461, 460 
                    404, 412, 413, 462, 461 
     LINE  1050     405, 413, 414, 463, 462 
                    406, 414, 415, 464, 463 
                    407, 415, 416, 465, 464 
                    408, 416, 417, 466, 465 
                    409, 417, 418, 467, 466 
     LINE  1055     410, 418, 419, 468, 467 
                    411, 419, 420, 469, 468 
                    412, 420, 421, 470, 469 
                    413, 421, 422, 471, 470 
                    414, 422, 423, 472, 471 
     LINE  1060     415, 423, 424, 473, 472 
                    416, 424, 425, 474, 473 
                    417, 425, 426, 475, 474 
                    418, 426, 427, 476, 475 
                    419, 427, 428, 477, 476 
     LINE  1065     420, 428, 429, 478, 477 
                    421, 429, 430, 479, 478 
                    422, 430, 431, 480, 479 
                    423, 431, 432, 481, 480 
                    424, 432, 433, 482, 481 
     LINE  1070     425, 433, 434, 483, 482 
                    426, 434, 435, 484, 483 
                    427, 435, 436, 485, 484 
                    428, 436, 437, 486, 485 
                    429, 437, 438, 487, 486 
     LINE  1075     430, 438, 439, 488, 487 
                    431, 439, 440, 489, 488 
                    432, 440, 441, 490, 489 
                    433, 442, 443, 492, 491 
                    434, 443, 444, 493, 492 
     LINE  1080     435, 444, 445, 494, 493 
                    436, 445, 446, 495, 494 
                    437, 446, 447, 496, 495 
                    438, 447, 448, 497, 496 
                    439, 448, 449, 498, 497 
     LINE  1085     440, 449, 450, 499, 498 
                    441, 450, 451, 500, 499 
                    442, 451, 452, 501, 500 
                    443, 452, 453, 502, 501 
                    444, 453, 454, 503, 502 
     LINE  1090     445, 454, 455, 504, 503 
                    446, 455, 456, 505, 504 
                    447, 456, 457, 506, 505 
                    448, 457, 458, 507, 506 
                    449, 458, 459, 508, 507 
     LINE  1095     450, 459, 460, 509, 508 
                    451, 460, 461, 510, 509 
                    452, 461, 462, 511, 510 
                    453, 462, 463, 512, 511 
                    454, 463, 464, 513, 512 
     LINE  1100     455, 464, 465, 514, 513 
                    456, 465, 466, 515, 514 
                    457, 466, 467, 516, 515 
                    458, 467, 468, 517, 516 
                    459, 468, 469, 518, 517 
     LINE  1105     460, 469, 470, 519, 518 
                    461, 470, 471, 520, 519 
                    462, 471, 472, 521, 520 
                    463, 472, 473, 522, 521 
                    464, 473, 474, 523, 522 
     LINE  1110     465, 474, 475, 524, 523 
                    466, 475, 476, 525, 524 
                    467, 476, 477, 526, 525 
                    468, 477, 478, 527, 526 
                    469, 478, 479, 528, 527 
     LINE  1115     470, 479, 480, 529, 528 
                    471, 480, 481, 530, 529 
                    472, 481, 482, 531, 530 
                    473, 482, 483, 532, 531 
                    474, 483, 484, 533, 532 
     LINE  1120     475, 484, 485, 534, 533 
                    476, 485, 486, 535, 534 
                    477, 486, 487, 536, 535 
                    478, 487, 488, 537, 536 
                    479, 488, 489, 538, 537 
     LINE  1125     480, 489, 490, 539, 538 
                    481, 491, 492, 541, 540 
                    482, 492, 493, 542, 541 
                    483, 493, 494, 543, 542 
                    484, 494, 495, 544, 543 
     LINE  1130     485, 495, 496, 545, 544 
                    486, 496, 497, 546, 545 
                    487, 497, 498, 547, 546 
                    488, 498, 499, 548, 547 
                    489, 499, 500, 549, 548 
     LINE  1135     490, 500, 501, 550, 549 
                    491, 501, 502, 551, 550 
                    492, 502, 503, 552, 551 
                    493, 503, 504, 553, 552 
                    494, 504, 505, 554, 553 
     LINE  1140     495, 505, 506, 555, 554 
                    496, 506, 507, 556, 555 
                    497, 507, 508, 557, 556 
                    498, 508, 509, 558, 557 
                    499, 509, 510, 559, 558 
     LINE  1145     500, 510, 511, 560, 559 
                    501, 511, 512, 561, 560 
                    502, 512, 513, 562, 561 
                    503, 513, 514, 563, 562 
                    504, 514, 515, 564, 563 
     LINE  1150     505, 515, 516, 565, 564 
                    506, 516, 517, 566, 565 
                    507, 517, 518, 567, 566 
                    508, 518, 519, 568, 567 
                    509, 519, 520, 569, 568 
     LINE  1155     510, 520, 521, 570, 569 
                    511, 521, 522, 571, 570 
                    512, 522, 523, 572, 571 
                    513, 523, 524, 573, 572 
                    514, 524, 525, 574, 573 
     LINE  1160     515, 525, 526, 575, 574 
                    516, 526, 527, 576, 575 
                    517, 527, 528, 577, 576 
                    518, 528, 529, 578, 577 
                    519, 529, 530, 579, 578 
     LINE  1165     520, 530, 531, 580, 579 
                    521, 531, 532, 581, 580 
                    522, 532, 533, 582, 581 
                    523, 533, 534, 583, 582 
                    524, 534, 535, 584, 583 
     LINE  1170     525, 535, 536, 585, 584 
                    526, 536, 537, 586, 585 
                    527, 537, 538, 587, 586 
                    528, 538, 539, 588, 587 
                    529, 540, 541, 590, 589 
     LINE  1175     530, 541, 542, 591, 590 
                    531, 542, 543, 592, 591 
                    532, 543, 544, 593, 592 
                    533, 544, 545, 594, 593 
                    534, 545, 546, 595, 594 
     LINE  1180     535, 546, 547, 596, 595 
                    536, 547, 548, 597, 596 
                    537, 548, 549, 598, 597 
                    538, 549, 550, 599, 598 
                    539, 550, 551, 600, 599 
     LINE  1185     540, 551, 552, 601, 600 
                    541, 552, 553, 602, 601 
                    542, 553, 554, 603, 602 
                    543, 554, 555, 604, 603 
                    544, 555, 556, 605, 604 
     LINE  1190     545, 556, 557, 606, 605 
                    546, 557, 558, 607, 606 
                    547, 558, 559, 608, 607 
                    548, 559, 560, 609, 608 
                    549, 560, 561, 610, 609 
     LINE  1195     550, 561, 562, 611, 610 
                    551, 562, 563, 612, 611 
                    552, 563, 564, 613, 612 
                    553, 564, 565, 614, 613 
                    554, 565, 566, 615, 614 
     LINE  1200     555, 566, 567, 616, 615 
                    556, 567, 568, 617, 616 
                    557, 568, 569, 618, 617 
                    558, 569, 570, 619, 618 
                    559, 570, 571, 620, 619 
     LINE  1205     560, 571, 572, 621, 620 
                    561, 572, 573, 622, 621 
                    562, 573, 574, 623, 622 
                    563, 574, 575, 624, 623 
                    564, 575, 576, 625, 624 
     LINE  1210     565, 576, 577, 626, 625 
                    566, 577, 578, 627, 626 
                    567, 578, 579, 628, 627 
                    568, 579, 580, 629, 628 
                    569, 580, 581, 630, 629 
     LINE  1215     570, 581, 582, 631, 630 
                    571, 582, 583, 632, 631 
                    572, 583, 584, 633, 632 
                    573, 584, 585, 634, 633 
                    574, 585, 586, 635, 634 
     LINE  1220     575, 586, 587, 636, 635 
                    576, 587, 588, 637, 636 
                    *Elset, elset=ASSEMBLY_PART-1-1_EALL    
                    1, 2, 3, 4, 5, 6, 7, 8, 9, 10, 11, 12, 13, 14, 15, 16   
                    17, 18, 19, 20, 21, 22, 23, 24, 25, 26, 27, 28, 29, 30, 31, 32  
     LINE  1225     33, 34, 35, 36, 37, 38, 39, 40, 41, 42, 43, 44, 45, 46, 47, 48  
                    49, 50, 51, 52, 53, 54, 55, 56, 57, 58, 59, 60, 61, 62, 63, 64  
                    65, 66, 67, 68, 69, 70, 71, 72, 73, 74, 75, 76, 77, 78, 79, 80  
                    81, 82, 83, 84, 85, 86, 87, 88, 89, 90, 91, 92, 93, 94, 95, 96  
                    97, 98, 99, 100, 101, 102, 103, 104, 105, 106, 107, 108, 109, 110, 111, 112     
     LINE  1230     113, 114, 115, 116, 117, 118, 119, 120, 121, 122, 123, 124, 125, 126, 127, 128  
                    129, 130, 131, 132, 133, 134, 135, 136, 137, 138, 139, 140, 141, 142, 143, 144  
                    145, 146, 147, 148, 149, 150, 151, 152, 153, 154, 155, 156, 157, 158, 159, 160  
                    161, 162, 163, 164, 165, 166, 167, 168, 169, 170, 171, 172, 173, 174, 175, 176  
                    177, 178, 179, 180, 181, 182, 183, 184, 185, 186, 187, 188, 189, 190, 191, 192  
     LINE  1235     193, 194, 195, 196, 197, 198, 199, 200, 201, 202, 203, 204, 205, 206, 207, 208  
                    209, 210, 211, 212, 213, 214, 215, 216, 217, 218, 219, 220, 221, 222, 223, 224  
                    225, 226, 227, 228, 229, 230, 231, 232, 233, 234, 235, 236, 237, 238, 239, 240  
                    241, 242, 243, 244, 245, 246, 247, 248, 249, 250, 251, 252, 253, 254, 255, 256  
                    257, 258, 259, 260, 261, 262, 263, 264, 265, 266, 267, 268, 269, 270, 271, 272  
     LINE  1240     273, 274, 275, 276, 277, 278, 279, 280, 281, 282, 283, 284, 285, 286, 287, 288  
                    289, 290, 291, 292, 293, 294, 295, 296, 297, 298, 299, 300, 301, 302, 303, 304  
                    305, 306, 307, 308, 309, 310, 311, 312, 313, 314, 315, 316, 317, 318, 319, 320  
                    321, 322, 323, 324, 325, 326, 327, 328, 329, 330, 331, 332, 333, 334, 335, 336  
                    337, 338, 339, 340, 341, 342, 343, 344, 345, 346, 347, 348, 349, 350, 351, 352  
     LINE  1245     353, 354, 355, 356, 357, 358, 359, 360, 361, 362, 363, 364, 365, 366, 367, 368  
                    369, 370, 371, 372, 373, 374, 375, 376, 377, 378, 379, 380, 381, 382, 383, 384  
                    385, 386, 387, 388, 389, 390, 391, 392, 393, 394, 395, 396, 397, 398, 399, 400  
                    401, 402, 403, 404, 405, 406, 407, 408, 409, 410, 411, 412, 413, 414, 415, 416  
                    417, 418, 419, 420, 421, 422, 423, 424, 425, 426, 427, 428, 429, 430, 431, 432  
     LINE  1250     433, 434, 435, 436, 437, 438, 439, 440, 441, 442, 443, 444, 445, 446, 447, 448  
                    449, 450, 451, 452, 453, 454, 455, 456, 457, 458, 459, 460, 461, 462, 463, 464  
                    465, 466, 467, 468, 469, 470, 471, 472, 473, 474, 475, 476, 477, 478, 479, 480  
                    481, 482, 483, 484, 485, 486, 487, 488, 489, 490, 491, 492, 493, 494, 495, 496  
                    497, 498, 499, 500, 501, 502, 503, 504, 505, 506, 507, 508, 509, 510, 511, 512  
     LINE  1255     513, 514, 515, 516, 517, 518, 519, 520, 521, 522, 523, 524, 525, 526, 527, 528  
                    529, 530, 531, 532, 533, 534, 535, 536, 537, 538, 539, 540, 541, 542, 543, 544  
                    545, 546, 547, 548, 549, 550, 551, 552, 553, 554, 555, 556, 557, 558, 559, 560  
                    561, 562, 563, 564, 565, 566, 567, 568, 569, 570, 571, 572, 573, 574, 575, 576  
                    *solidsection, elset=ASSEMBLY_PART-1-1_EALL, material=MATERIAL-1
     LINE  1260     1,      
                    **      
                    ** Assembly Nsets       
                    **      
                    *Nset, nset=ASSEMBLY_SET_1      
     LINE  1265     49, 637 
                    *Nset, nset=ASSEMBLY_SET_2      
                    98, 588 
                    *Nset, nset=ASSEMBLY_SET_3      
                    147, 539
     LINE  1270     *Nset, nset=ASSEMBLY_SET_4      
                    196, 490
                    *Nset, nset=ASSEMBLY_SET_5      
                    245, 441
                    *Nset, nset=ASSEMBLY_SET_6      
     LINE  1275     294, 392
                    *Nset, nset=ASSEMBLY_SET_7      
                    343     
                    *Nset, nset=ASSEMBLY_SET_BOUNDARY       
                    1, 50, 99, 148, 197, 246, 295, 344, 393, 442, 491, 540, 589     
     LINE  1280     *material, name=MATERIAL-1      
                    *elastic
                    3E+07, 0.3      
                    *Step, name=Step-1      
                    *static 
     LINE  1285     1., 1., 1E-05, 1.       
                    *boundary       
                    ASSEMBLY_SET_BOUNDARY, ENCASTRE 
                    *cload  
                    ASSEMBLY_SET_1, 2, 0.0  
     LINE  1290     ASSEMBLY_SET_2, 2, -38.194      
                    ASSEMBLY_SET_3, 2, -69.44       
                    ASSEMBLY_SET_4, 2, -93.75       
                    ASSEMBLY_SET_5, 2, -111.11      
                    ASSEMBLY_SET_6, 2, -121.52      
     LINE  1295     ASSEMBLY_SET_7, 2, -125.0       
                    *output, field  
                    *elementoutput  
                    S, COORD,       
                    E,      
     LINE  1300     LOADS,  
                    *energyfile     
                    *output, history, frequency=1   
                    *energyoutput, variable=PRESELECT       
                    *nodefile       
     LINE  1305     U, COORD
                    *output, field  
                    *nodeoutput     
                    U, COORD
                    *nodeprint      
     LINE  1310     U, COORD
                    *elprint
                    SDV     
                    *endstep
                    --------------------------------------------------------------------------------
                        5   10   15   20   25   30   35   40   45   50   55   60   65   70   75   80
                    --------------------------------------------------------------------------------



     OPTIONS BEING PROCESSED
   ***************************


  *Heading
          Plane Stress Linear Static analysis of Beam under Parabolic Loading                                                                                                                                                                                             
  *Node
  *Element, type=CPS4R
  *Elset, elset=ASSEMBLY_PART-1-1_EALL
  *Nset, nset=ASSEMBLY_SET_1
  *Nset, nset=ASSEMBLY_SET_2
  *Nset, nset=ASSEMBLY_SET_3
  *Nset, nset=ASSEMBLY_SET_4
  *Nset, nset=ASSEMBLY_SET_5
  *Nset, nset=ASSEMBLY_SET_6
  *Nset, nset=ASSEMBLY_SET_7
  *Nset, nset=ASSEMBLY_SET_BOUNDARY
  *material, name=MATERIAL-1
  *elastic
  *solidsection, elset=ASSEMBLY_PART-1-1_EALL, material=MATERIAL-1
  *solidsection, elset=ASSEMBLY_PART-1-1_EALL, material=MATERIAL-1
  *boundary
  *boundary
  *output, field
  *output, history, frequency=1
  *output, field
  *elementoutput
  *output, field
  *output, history, frequency=1
  *output, field
  *elementoutput
  *output, field
  *output, history, frequency=1
  *output, field
  *elementoutput
  *Step, name=Step-1
  *output, field
  *output, history, frequency=1
  *output, field
  *Step, name=Step-1
  *Step, name=Step-1
  *static
  *boundary
  *output, field
  *elementoutput
  *energyfile
  *output, history, frequency=1
  *energyoutput, variable=PRESELECT
  *nodefile
  *output, field
  *nodeoutput
  *nodeprint
  *elprint

 ***WARNING: OUTPUT VARIABLE SDV HAS NO COMPONENTS IN THIS ANALYSIS FOR ELEMENT 
             TYPE CPS4R
  *endstep

 ***WARNING: OUTPUT REQUEST LOADS IS NOT AVAILABLE FOR THIS OPTION
  *Step, name=Step-1
  *static
  *boundary
  *cload
  *endstep


                              E L E M E N T,   N O D E,   A N D   S U R F A C E   M A P S


**NOTE: This section may not include complete information about
        members of sets and surfaces. Use *PREPRINT, MODEL=YES 
        in order to get the set and surface members printed    
        under the following sections:                          
            - E L E M E N T   S E T S                          
            - N O D E   S E T S                                
            - S U R F A C E   D E F I N I T I O N S .          


Assembly name: ASSEMBLY
Number of instances: 1

ASSEMBLY LEVEL
  node sets:
    SET_1:
      instance name: PART-1-1
      number of nodes: 2
      nodes: 
        49 637

    SET_2:
      instance name: PART-1-1
      number of nodes: 2
      nodes: 
        98 588

    SET_3:
      instance name: PART-1-1
      number of nodes: 2
      nodes: 
        147 539

    SET_4:
      instance name: PART-1-1
      number of nodes: 2
      nodes: 
        196 490

    SET_5:
      instance name: PART-1-1
      number of nodes: 2
      nodes: 
        245 441

    SET_6:
      instance name: PART-1-1
      number of nodes: 2
      nodes: 
        294 392

    SET_7:
      instance name: PART-1-1
      number of nodes: 1
      nodes: 
        343

    SET_BOUNDARY:
      instance name: PART-1-1
      number of nodes: 13
      nodes: 
        1 50 99 148 197 246 295 344 393 442 491 540 589

  element sets:
  Surfaces:

INSTANCE LEVEL
  node sets:

  element sets:
    Instance name: PART-1-1
      element set name: EALL
        number of elements: 576
        elements: 
          1 2 3 4 5 6 7 8 9 10 11 12 13 14 15 16 17 18 19 20 21 22 23 24
          25 26 27 28 29 30 31 32 33 34 35 36 37 38 39 40 41 42 43 44 45
          46 47 48 49 50 51 52 53 54 55 56 57 58 59 60 61 62 63 64 65 66
          67 68 69 70 71 72 73 74 75 76 77 78 79 80 81 82 83 84 85 86 87
          88 89 90 91 92 93 94 95 96 97 98 99 100 101 102 103 104 105
          106 107 108 109 110 111 112 113 114 115 116 117 118 119 120
          121 122 123 124 125 126 127 128 129 130 131 132 133 134 135
          136 137 138 139 140 141 142 143 144 145 146 147 148 149 150
          151 152 153 154 155 156 157 158 159 160 161 162 163 164 165
          166 167 168 169 170 171 172 173 174 175 176 177 178 179 180
          181 182 183 184 185 186 187 188 189 190 191 192 193 194 195
          196 197 198 199 200 201 202 203 204 205 206 207 208 209 210
          211 212 213 214 215 216 217 218 219 220 221 222 223 224 225
          226 227 228 229 230 231 232 233 234 235 236 237 238 239 240
          241 242 243 244 245 246 247 248 249 250 251 252 253 254 255
          256 257 258 259 260 261 262 263 264 265 266 267 268 269 270
          271 272 273 274 275 276 277 278 279 280 281 282 283 284 285
          286 287 288 289 290 291 292 293 294 295 296 297 298 299 300
          301 302 303 304 305 306 307 308 309 310 311 312 313 314 315
          316 317 318 319 320 321 322 323 324 325 326 327 328 329 330
          331 332 333 334 335 336 337 338 339 340 341 342 343 344 345
          346 347 348 349 350 351 352 353 354 355 356 357 358 359 360
          361 362 363 364 365 366 367 368 369 370 371 372 373 374 375
          376 377 378 379 380 381 382 383 384 385 386 387 388 389 390
          391 392 393 394 395 396 397 398 399 400 401 402 403 404 405
          406 407 408 409 410 411 412 413 414 415 416 417 418 419 420
          421 422 423 424 425 426 427 428 429 430 431 432 433 434 435
          436 437 438 439 440 441 442 443 444 445 446 447 448 449 450
          451 452 453 454 455 456 457 458 459 460 461 462 463 464 465
          466 467 468 469 470 471 472 473 474 475 476 477 478 479 480
          481 482 483 484 485 486 487 488 489 490 491 492 493 494 495
          496 497 498 499 500 501 502 503 504 505 506 507 508 509 510
          511 512 513 514 515 516 517 518 519 520 521 522 523 524 525
          526 527 528 529 530 531 532 533 534 535 536 537 538 539 540
          541 542 543 544 545 546 547 548 549 550 551 552 553 554 555
          556 557 558 559 560 561 562 563 564 565 566 567 568 569 570
          571 572 573 574 575 576

  Surfaces:

GLOBAL TO LOCAL NODE AND ELEMENT MAPS
  Global     Local      
  node       node       
  number     number     
                        Instance name                                   
   1          1         PART-1-1                                        
   2          2         PART-1-1                                        
   3          3         PART-1-1                                        
   4          4         PART-1-1                                        
   5          5         PART-1-1                                        
   6          6         PART-1-1                                        
   7          7         PART-1-1                                        
   8          8         PART-1-1                                        
   9          9         PART-1-1                                        
   10         10        PART-1-1                                        
   11         11        PART-1-1                                        
   12         12        PART-1-1                                        
   13         13        PART-1-1                                        
   14         14        PART-1-1                                        
   15         15        PART-1-1                                        
   16         16        PART-1-1                                        
   17         17        PART-1-1                                        
   18         18        PART-1-1                                        
   19         19        PART-1-1                                        
   20         20        PART-1-1                                        
   21         21        PART-1-1                                        
   22         22        PART-1-1                                        
   23         23        PART-1-1                                        
   24         24        PART-1-1                                        
   25         25        PART-1-1                                        
   26         26        PART-1-1                                        
   27         27        PART-1-1                                        
   28         28        PART-1-1                                        
   29         29        PART-1-1                                        
   30         30        PART-1-1                                        
   31         31        PART-1-1                                        
   32         32        PART-1-1                                        
   33         33        PART-1-1                                        
   34         34        PART-1-1                                        
   35         35        PART-1-1                                        
   36         36        PART-1-1                                        
   37         37        PART-1-1                                        
   38         38        PART-1-1                                        
   39         39        PART-1-1                                        
   40         40        PART-1-1                                        
   41         41        PART-1-1                                        
   42         42        PART-1-1                                        
   43         43        PART-1-1                                        
   44         44        PART-1-1                                        
   45         45        PART-1-1                                        
   46         46        PART-1-1                                        
   47         47        PART-1-1                                        
   48         48        PART-1-1                                        
   49         49        PART-1-1                                        
   50         50        PART-1-1                                        
   51         51        PART-1-1                                        
   52         52        PART-1-1                                        
   53         53        PART-1-1                                        
   54         54        PART-1-1                                        
   55         55        PART-1-1                                        
   56         56        PART-1-1                                        
   57         57        PART-1-1                                        
   58         58        PART-1-1                                        
   59         59        PART-1-1                                        
   60         60        PART-1-1                                        
   61         61        PART-1-1                                        
   62         62        PART-1-1                                        
   63         63        PART-1-1                                        
   64         64        PART-1-1                                        
   65         65        PART-1-1                                        
   66         66        PART-1-1                                        
   67         67        PART-1-1                                        
   68         68        PART-1-1                                        
   69         69        PART-1-1                                        
   70         70        PART-1-1                                        
   71         71        PART-1-1                                        
   72         72        PART-1-1                                        
   73         73        PART-1-1                                        
   74         74        PART-1-1                                        
   75         75        PART-1-1                                        
   76         76        PART-1-1                                        
   77         77        PART-1-1                                        
   78         78        PART-1-1                                        
   79         79        PART-1-1                                        
   80         80        PART-1-1                                        
   81         81        PART-1-1                                        
   82         82        PART-1-1                                        
   83         83        PART-1-1                                        
   84         84        PART-1-1                                        
   85         85        PART-1-1                                        
   86         86        PART-1-1                                        
   87         87        PART-1-1                                        
   88         88        PART-1-1                                        
   89         89        PART-1-1                                        
   90         90        PART-1-1                                        
   91         91        PART-1-1                                        
   92         92        PART-1-1                                        
   93         93        PART-1-1                                        
   94         94        PART-1-1                                        
   95         95        PART-1-1                                        
   96         96        PART-1-1                                        
   97         97        PART-1-1                                        
   98         98        PART-1-1                                        
   99         99        PART-1-1                                        
   100        100       PART-1-1                                        
   101        101       PART-1-1                                        
   102        102       PART-1-1                                        
   103        103       PART-1-1                                        
   104        104       PART-1-1                                        
   105        105       PART-1-1                                        
   106        106       PART-1-1                                        
   107        107       PART-1-1                                        
   108        108       PART-1-1                                        
   109        109       PART-1-1                                        
   110        110       PART-1-1                                        
   111        111       PART-1-1                                        
   112        112       PART-1-1                                        
   113        113       PART-1-1                                        
   114        114       PART-1-1                                        
   115        115       PART-1-1                                        
   116        116       PART-1-1                                        
   117        117       PART-1-1                                        
   118        118       PART-1-1                                        
   119        119       PART-1-1                                        
   120        120       PART-1-1                                        
   121        121       PART-1-1                                        
   122        122       PART-1-1                                        
   123        123       PART-1-1                                        
   124        124       PART-1-1                                        
   125        125       PART-1-1                                        
   126        126       PART-1-1                                        
   127        127       PART-1-1                                        
   128        128       PART-1-1                                        
   129        129       PART-1-1                                        
   130        130       PART-1-1                                        
   131        131       PART-1-1                                        
   132        132       PART-1-1                                        
   133        133       PART-1-1                                        
   134        134       PART-1-1                                        
   135        135       PART-1-1                                        
   136        136       PART-1-1                                        
   137        137       PART-1-1                                        
   138        138       PART-1-1                                        
   139        139       PART-1-1                                        
   140        140       PART-1-1                                        
   141        141       PART-1-1                                        
   142        142       PART-1-1                                        
   143        143       PART-1-1                                        
   144        144       PART-1-1                                        
   145        145       PART-1-1                                        
   146        146       PART-1-1                                        
   147        147       PART-1-1                                        
   148        148       PART-1-1                                        
   149        149       PART-1-1                                        
   150        150       PART-1-1                                        
   151        151       PART-1-1                                        
   152        152       PART-1-1                                        
   153        153       PART-1-1                                        
   154        154       PART-1-1                                        
   155        155       PART-1-1                                        
   156        156       PART-1-1                                        
   157        157       PART-1-1                                        
   158        158       PART-1-1                                        
   159        159       PART-1-1                                        
   160        160       PART-1-1                                        
   161        161       PART-1-1                                        
   162        162       PART-1-1                                        
   163        163       PART-1-1                                        
   164        164       PART-1-1                                        
   165        165       PART-1-1                                        
   166        166       PART-1-1                                        
   167        167       PART-1-1                                        
   168        168       PART-1-1                                        
   169        169       PART-1-1                                        
   170        170       PART-1-1                                        
   171        171       PART-1-1                                        
   172        172       PART-1-1                                        
   173        173       PART-1-1                                        
   174        174       PART-1-1                                        
   175        175       PART-1-1                                        
   176        176       PART-1-1                                        
   177        177       PART-1-1                                        
   178        178       PART-1-1                                        
   179        179       PART-1-1                                        
[...]
       387      2.6116015E-04 -7.5323152E-03  4.3000000E+01  1.0000000E+00 
       388      2.6216044E-04 -7.8060677E-03  4.4000000E+01  1.0000000E+00 
       389      2.6300923E-04 -8.0778552E-03  4.5000000E+01  1.0000000E+00 
       390      2.6361456E-04 -8.3532052E-03  4.6000000E+01  1.0000000E+00 
       391      2.6386464E-04 -8.6262480E-03  4.7000000E+01  1.0000000E+00 
       392      2.6414260E-04 -8.9024401E-03  4.8000000E+01  1.0000000E+00 
       393      0.0000000E+00  0.0000000E+00  0.0000000E+00  2.0000000E+00 
       394      1.8934430E-05 -6.7865521E-06  1.0000000E+00  2.0000000E+00 
       395      3.7361306E-05 -2.7392439E-05  2.0000000E+00  2.0000000E+00 
       396      5.9459011E-05 -6.2689471E-05  3.0000000E+00  2.0000000E+00 
       397      7.8566599E-05 -1.0606577E-04  4.0000000E+00  2.0000000E+00 
       398      1.0031933E-04 -1.6402766E-04  5.0000000E+00  2.0000000E+00 
       399      1.1944256E-04 -2.2719654E-04  6.0000000E+00  2.0000000E+00 
       400      1.3938736E-04 -3.0494568E-04  7.0000000E+00  2.0000000E+00 
       401      1.5796712E-04 -3.8731953E-04  8.0000000E+00  2.0000000E+00 
       402      1.7646075E-04 -4.8360871E-04  9.0000000E+00  2.0000000E+00 
       403      1.9427597E-04 -5.8443481E-04  1.0000000E+01  2.0000000E+00 
       404      2.1163886E-04 -6.9830065E-04  1.1000000E+01  2.0000000E+00 
       405      2.2858689E-04 -8.1669618E-04  1.2000000E+01  2.0000000E+00 
       406      2.4496672E-04 -9.4724015E-04  1.3000000E+01  2.0000000E+00 
       407      2.6099926E-04 -1.0822630E-03  1.4000000E+01  2.0000000E+00 
       408      2.7644959E-04 -1.2285983E-03  1.5000000E+01  2.0000000E+00 
       409      2.9154807E-04 -1.3792897E-03  1.6000000E+01  2.0000000E+00 
       410      3.0608354E-04 -1.5405270E-03  1.7000000E+01  2.0000000E+00 
       411      3.2024378E-04 -1.7059284E-03  1.8000000E+01  2.0000000E+00 
       412      3.3386569E-04 -1.8811728E-03  1.9000000E+01  2.0000000E+00 
       413      3.4708882E-04 -2.0603299E-03  2.0000000E+01  2.0000000E+00 
       414      3.5979509E-04 -2.2486817E-03  2.1000000E+01  2.0000000E+00 
       415      3.7208331E-04 -2.4406445E-03  2.2000000E+01  2.0000000E+00 
       416      3.8387182E-04 -2.6412005E-03  2.3000000E+01  2.0000000E+00 
       417      3.9522687E-04 -2.8450217E-03  2.4000000E+01  2.0000000E+00 
       418      4.0609618E-04 -3.0568764E-03  2.5000000E+01  2.0000000E+00 
       419      4.1651913E-04 -3.2716102E-03  2.6000000E+01  2.0000000E+00 
       420      4.2646845E-04 -3.4938571E-03  2.7000000E+01  2.0000000E+00 
       421      4.3595988E-04 -3.7185586E-03  2.8000000E+01  2.0000000E+00 
       422      4.4498874E-04 -3.9502907E-03  2.9000000E+01  2.0000000E+00 
       423      4.5354911E-04 -4.1840154E-03  3.0000000E+01  2.0000000E+00 
       424      4.6165688E-04 -4.4243253E-03  3.1000000E+01  2.0000000E+00 
       425      4.6928716E-04 -4.6661287E-03  3.2000000E+01  2.0000000E+00 
       426      4.7647231E-04 -4.9141093E-03  3.3000000E+01  2.0000000E+00 
       427      4.8317488E-04 -5.1630469E-03  3.4000000E+01  2.0000000E+00 
       428      4.8943379E-04 -5.4177904E-03  3.5000000E+01  2.0000000E+00 
       429      4.9521399E-04 -5.6729191E-03  3.6000000E+01  2.0000000E+00 
       430      5.0053924E-04 -5.9335154E-03  3.7000000E+01  2.0000000E+00 
       431      5.0540749E-04 -6.1938956E-03  3.8000000E+01  2.0000000E+00 
       432      5.0978654E-04 -6.4594284E-03  3.9000000E+01  2.0000000E+00 
       433      5.1375978E-04 -6.7241291E-03  4.0000000E+01  2.0000000E+00 
       434      5.1717762E-04 -6.9936686E-03  4.1000000E+01  2.0000000E+00 
       435      5.2027484E-04 -7.2617753E-03  4.2000000E+01  2.0000000E+00 
       436      5.2273233E-04 -7.5343664E-03  4.3000000E+01  2.0000000E+00 
       437      5.2494115E-04 -7.8049932E-03  4.4000000E+01  2.0000000E+00 
       438      5.2651658E-04 -8.0796385E-03  4.5000000E+01  2.0000000E+00 
       439      5.2765585E-04 -8.3519384E-03  4.6000000E+01  2.0000000E+00 
       440      5.2852995E-04 -8.6277688E-03  4.7000000E+01  2.0000000E+00 
       441      5.2838923E-04 -8.9008678E-03  4.8000000E+01  2.0000000E+00 
       442      0.0000000E+00  0.0000000E+00  0.0000000E+00  3.0000000E+00 
       443      2.7251084E-05 -9.2343801E-06  1.0000000E+00  3.0000000E+00 
       444      5.9601316E-05 -3.4027587E-05  2.0000000E+00  3.0000000E+00 
       445      8.8021414E-05 -6.7732872E-05  3.0000000E+00  3.0000000E+00 
       446      1.2185859E-04 -1.1617414E-04  4.0000000E+00  3.0000000E+00 
       447      1.5077134E-04 -1.6911603E-04  5.0000000E+00  3.0000000E+00 
       448      1.8171169E-04 -2.3718006E-04  6.0000000E+00  3.0000000E+00 
       449      2.1004284E-04 -3.0975385E-04  7.0000000E+00  3.0000000E+00 
       450      2.3864555E-04 -3.9667281E-04  8.0000000E+00  3.0000000E+00 
       451      2.6596212E-04 -4.8820873E-04  9.0000000E+00  3.0000000E+00 
       452      2.9276880E-04 -5.9315694E-04  1.0000000E+01  3.0000000E+00 
       453      3.1885060E-04 -7.0274376E-04  1.1000000E+01  3.0000000E+00 
       454      3.4413384E-04 -8.2484054E-04  1.2000000E+01  3.0000000E+00 
       455      3.6887136E-04 -9.5152281E-04  1.3000000E+01  3.0000000E+00 
       456      3.9274076E-04 -1.0898763E-03  1.4000000E+01  3.0000000E+00 
       457      4.1608762E-04 -1.2326942E-03  1.5000000E+01  3.0000000E+00 
       458      4.3857881E-04 -1.3864090E-03  1.6000000E+01  3.0000000E+00 
       459      4.6052071E-04 -1.5444062E-03  1.7000000E+01  3.0000000E+00 
       460      4.8164088E-04 -1.7125838E-03  1.8000000E+01  3.0000000E+00 
       461      5.0217674E-04 -1.8848082E-03  1.9000000E+01  3.0000000E+00 
       462      5.2192428E-04 -2.0665472E-03  2.0000000E+01  3.0000000E+00 
       463      5.4105681E-04 -2.2520496E-03  2.1000000E+01  3.0000000E+00 
       464      5.5942861E-04 -2.4464459E-03  2.2000000E+01  3.0000000E+00 
       465      5.7716061E-04 -2.6442794E-03  2.3000000E+01  3.0000000E+00 
       466      5.9415426E-04 -2.8504277E-03  2.4000000E+01  3.0000000E+00 
       467      6.1048761E-04 -3.0596464E-03  2.5000000E+01  3.0000000E+00 
       468      6.2610165E-04 -3.2766402E-03  2.6000000E+01  3.0000000E+00 
       469      6.4103742E-04 -3.4962993E-03  2.7000000E+01  3.0000000E+00 
       470      6.5527105E-04 -3.7232314E-03  2.8000000E+01  3.0000000E+00 
       471      6.6880988E-04 -3.9523864E-03  2.9000000E+01  3.0000000E+00 
       472      6.8166246E-04 -4.1883496E-03  3.0000000E+01  3.0000000E+00 
       473      6.9380518E-04 -4.4260559E-03  3.1000000E+01  3.0000000E+00 
       474      7.0527546E-04 -4.6701430E-03  3.2000000E+01  3.0000000E+00 
       475      7.1602403E-04 -4.9154560E-03  3.3000000E+01  3.0000000E+00 
       476      7.2610889E-04 -5.1667600E-03  3.4000000E+01  3.0000000E+00 
       477      7.3546807E-04 -5.4187348E-03  3.5000000E+01  3.0000000E+00 
       478      7.4416054E-04 -5.6763490E-03  3.6000000E+01  3.0000000E+00 
       479      7.5214027E-04 -5.9340406E-03  3.7000000E+01  3.0000000E+00 
       480      7.5942712E-04 -6.1970581E-03  3.8000000E+01  3.0000000E+00 
       481      7.6604510E-04 -6.4595224E-03  3.9000000E+01  3.0000000E+00 
       482      7.7190633E-04 -6.7270346E-03  4.0000000E+01  3.0000000E+00 
       483      7.7718755E-04 -6.9933305E-03  4.1000000E+01  3.0000000E+00 
       484      7.8160506E-04 -7.2644228E-03  4.2000000E+01  3.0000000E+00 
       485      7.8556721E-04 -7.5336176E-03  4.3000000E+01  3.0000000E+00 
       486      7.8856446E-04 -7.8073499E-03  4.4000000E+01  3.0000000E+00 
       487      7.9115316E-04 -8.0785416E-03  4.5000000E+01  3.0000000E+00 
       488      7.9293036E-04 -8.3538564E-03  4.6000000E+01  3.0000000E+00 
       489      7.9371095E-04 -8.6262536E-03  4.7000000E+01  3.0000000E+00 
       490      7.9458226E-04 -8.9024159E-03  4.8000000E+01  3.0000000E+00 
       491      0.0000000E+00  0.0000000E+00  0.0000000E+00  4.0000000E+00 
       492      4.0106925E-05 -1.4880745E-05  1.0000000E+00  4.0000000E+00 
       493      7.7546833E-05 -4.0792108E-05  2.0000000E+00  4.0000000E+00 
       494      1.2469614E-04 -8.1434822E-05  3.0000000E+00  4.0000000E+00 
       495      1.6337901E-04 -1.2400792E-04  4.0000000E+00  4.0000000E+00 
       496      2.0587224E-04 -1.8249411E-04  5.0000000E+00  4.0000000E+00 
       497      2.4412693E-04 -2.4495721E-04  6.0000000E+00  4.0000000E+00 
       498      2.8335650E-04 -3.2223008E-04  7.0000000E+00  4.0000000E+00 
       499      3.2049777E-04 -4.0418166E-04  8.0000000E+00  4.0000000E+00 
       500      3.5725607E-04 -4.9987190E-04  9.0000000E+00  4.0000000E+00 
       501      3.9287756E-04 -6.0036909E-04  1.0000000E+01  4.0000000E+00 
       502      4.2755117E-04 -7.1368632E-04  1.1000000E+01  4.0000000E+00 
       503      4.6143761E-04 -8.3174297E-04  1.2000000E+01  4.0000000E+00 
       504      4.9419708E-04 -9.6179836E-04  1.3000000E+01  4.0000000E+00 
       505      5.2625195E-04 -1.0964488E-03  1.4000000E+01  4.0000000E+00 
       506      5.5716163E-04 -1.2423362E-03  1.5000000E+01  4.0000000E+00 
       507      5.8735050E-04 -1.3926284E-03  1.6000000E+01  4.0000000E+00 
       508      6.1642860E-04 -1.5534406E-03  1.7000000E+01  4.0000000E+00 
       509      6.4474403E-04 -1.7184273E-03  1.8000000E+01  4.0000000E+00 
       510      6.7199184E-04 -1.8932575E-03  1.9000000E+01  4.0000000E+00 
       511      6.9843555E-04 -2.0719929E-03  2.0000000E+01  4.0000000E+00 
       512      7.2384986E-04 -2.2599349E-03  2.1000000E+01  4.0000000E+00 
       513      7.4842530E-04 -2.4514733E-03  2.2000000E+01  4.0000000E+00 
       514      7.7200285E-04 -2.6516208E-03  2.3000000E+01  4.0000000E+00 
       515      7.9471276E-04 -2.8550171E-03  2.4000000E+01  4.0000000E+00 
       516      8.1645136E-04 -3.0664632E-03  2.5000000E+01  4.0000000E+00 
       517      8.3729743E-04 -3.2807725E-03  2.6000000E+01  4.0000000E+00 
       518      8.5719582E-04 -3.5026103E-03  2.7000000E+01  4.0000000E+00 
       519      8.7617896E-04 -3.7268881E-03  2.8000000E+01  4.0000000E+00 
       520      8.9423640E-04 -3.9582101E-03  2.9000000E+01  4.0000000E+00 
       521      9.1135735E-04 -4.1915122E-03  3.0000000E+01  4.0000000E+00 
       522      9.2757291E-04 -4.4314109E-03  3.1000000E+01  4.0000000E+00 
       523      9.4283307E-04 -4.6727928E-03  3.2000000E+01  4.0000000E+00 
       524      9.5720454E-04 -4.9203611E-03  3.3000000E+01  4.0000000E+00 
       525      9.7060735E-04 -5.1688778E-03  3.4000000E+01  4.0000000E+00 
       526      9.8312946E-04 -5.4232096E-03  3.5000000E+01  4.0000000E+00 
       527      9.9468266E-04 -5.6779146E-03  3.6000000E+01  4.0000000E+00 
       528      1.0053445E-03 -5.9381063E-03  3.7000000E+01  4.0000000E+00 
       529      1.0150629E-03 -6.1980498E-03  3.8000000E+01  4.0000000E+00 
       530      1.0238454E-03 -6.4632028E-03  3.9000000E+01  4.0000000E+00 
       531      1.0317524E-03 -6.7274289E-03  4.0000000E+01  4.0000000E+00 
       532      1.0386304E-03 -6.9966535E-03  4.1000000E+01  4.0000000E+00 
       533      1.0447518E-03 -7.2641956E-03  4.2000000E+01  4.0000000E+00 
       534      1.0497114E-03 -7.5366129E-03  4.3000000E+01  4.0000000E+00 
       535      1.0540473E-03 -7.8064904E-03  4.4000000E+01  4.0000000E+00 
       536      1.0571519E-03 -8.0812017E-03  4.5000000E+01  4.0000000E+00 
       537      1.0595859E-03 -8.3524472E-03  4.6000000E+01  4.0000000E+00 
       538      1.0612886E-03 -8.6282422E-03  4.7000000E+01  4.0000000E+00 
       539      1.0609061E-03 -8.9002860E-03  4.8000000E+01  4.0000000E+00 
       540      0.0000000E+00  0.0000000E+00  0.0000000E+00  5.0000000E+00 
       541      4.6971286E-05 -2.1673388E-05  1.0000000E+00  5.0000000E+00 
       542      1.0974404E-04 -5.9162472E-05  2.0000000E+00  5.0000000E+00 
       543      1.5780848E-04 -9.1627228E-05  3.0000000E+00  5.0000000E+00 
       544      2.1215609E-04 -1.4096531E-04  4.0000000E+00  5.0000000E+00 
       545      2.6032435E-04 -1.9322433E-04  5.0000000E+00  5.0000000E+00 
       546      3.1057727E-04 -2.6062063E-04  6.0000000E+00  5.0000000E+00 
       547      3.5778905E-04 -3.3277783E-04  7.0000000E+00  5.0000000E+00 
       548      4.0498043E-04 -4.1886233E-04  8.0000000E+00  5.0000000E+00 
       549      4.5051316E-04 -5.1001915E-04  9.0000000E+00  5.0000000E+00 
       550      4.9506872E-04 -6.1421160E-04  1.0000000E+01  5.0000000E+00 
       551      5.3853200E-04 -7.2336935E-04  1.1000000E+01  5.0000000E+00 
       552      5.8066064E-04 -8.4480249E-04  1.2000000E+01  5.0000000E+00 
       553      6.2187559E-04 -9.7099610E-04  1.3000000E+01  5.0000000E+00 
       554      6.6167169E-04 -1.1087480E-03  1.4000000E+01  5.0000000E+00 
       555      7.0056944E-04 -1.2510355E-03  1.5000000E+01  5.0000000E+00 
       556      7.3806753E-04 -1.4041826E-03  1.6000000E+01  5.0000000E+00 
       557      7.7462805E-04 -1.5616269E-03  1.7000000E+01  5.0000000E+00 
       558      8.0983594E-04 -1.7292527E-03  1.8000000E+01  5.0000000E+00 
       559      8.4405736E-04 -1.9009140E-03  1.9000000E+01  5.0000000E+00 
       560      8.7697351E-04 -2.0821073E-03  2.0000000E+01  5.0000000E+00 
       561      9.0885893E-04 -2.2670431E-03  2.1000000E+01  5.0000000E+00 
       562      9.3947986E-04 -2.4608955E-03  2.2000000E+01  5.0000000E+00 
       563      9.6903262E-04 -2.6581618E-03  2.3000000E+01  5.0000000E+00 
       564      9.9735551E-04 -2.8637661E-03  2.4000000E+01  5.0000000E+00 
       565      1.0245779E-03 -3.0724181E-03  2.5000000E+01  5.0000000E+00 
       566      1.0506010E-03 -3.2888671E-03  2.6000000E+01  5.0000000E+00 
       567      1.0754944E-03 -3.5079604E-03  2.7000000E+01  5.0000000E+00 
       568      1.0992166E-03 -3.7343468E-03  2.8000000E+01  5.0000000E+00 
       569      1.1217818E-03 -3.9629370E-03  2.9000000E+01  5.0000000E+00 
       570      1.1432024E-03 -4.1983532E-03  3.0000000E+01  5.0000000E+00 
       571      1.1634404E-03 -4.4354962E-03  3.1000000E+01  5.0000000E+00 
       572      1.1825579E-03 -4.6790346E-03  3.2000000E+01  5.0000000E+00 
       573      1.2004709E-03 -4.9237863E-03  3.3000000E+01  5.0000000E+00 
       574      1.2172820E-03 -5.1745396E-03  3.4000000E+01  5.0000000E+00 
       575      1.2328752E-03 -5.4259544E-03  3.5000000E+01  5.0000000E+00 
       576      1.2473721E-03 -5.6830182E-03  3.6000000E+01  5.0000000E+00 
       577      1.2606563E-03 -5.9401469E-03  3.7000000E+01  5.0000000E+00 
       578      1.2728244E-03 -6.2026226E-03  3.8000000E+01  5.0000000E+00 
       579      1.2838180E-03 -6.4645070E-03  3.9000000E+01  5.0000000E+00 
       580      1.2936345E-03 -6.7315104E-03  4.0000000E+01  5.0000000E+00 
       581      1.3023608E-03 -6.9971734E-03  4.1000000E+01  5.0000000E+00 
       582      1.3098011E-03 -7.2678481E-03  4.2000000E+01  5.0000000E+00 
       583      1.3162715E-03 -7.5362737E-03  4.3000000E+01  5.0000000E+00 
       584      1.3213361E-03 -7.8098086E-03  4.4000000E+01  5.0000000E+00 
       585      1.3255001E-03 -8.0799042E-03  4.5000000E+01  5.0000000E+00 
       586      1.3283065E-03 -8.3555303E-03  4.6000000E+01  5.0000000E+00 
       587      1.3299043E-03 -8.6260224E-03  4.7000000E+01  5.0000000E+00 
       588      1.3315164E-03 -8.9023680E-03  4.8000000E+01  5.0000000E+00 
       589      0.0000000E+00  0.0000000E+00  0.0000000E+00  6.0000000E+00 
       590      8.0396603E-05 -4.6740963E-05  1.0000000E+00  6.0000000E+00 
       591      1.3537251E-04 -7.1347588E-05  2.0000000E+00  6.0000000E+00 
       592      2.0107930E-04 -1.1211617E-04  3.0000000E+00  6.0000000E+00 
       593      2.5873635E-04 -1.5474588E-04  4.0000000E+00  6.0000000E+00 
       594      3.2025994E-04 -2.1200253E-04  5.0000000E+00  6.0000000E+00 
       595      3.7769494E-04 -2.7439706E-04  6.0000000E+00  6.0000000E+00 
       596      4.3579584E-04 -3.5049093E-04  7.0000000E+00  6.0000000E+00 
       597      4.9158117E-04 -4.3213843E-04  8.0000000E+00  6.0000000E+00 
       598      5.4652842E-04 -5.2683862E-04  9.0000000E+00  6.0000000E+00 
       599      5.9998104E-04 -6.2684782E-04  1.0000000E+01  6.0000000E+00 
       600      6.5197238E-04 -7.3932605E-04  1.1000000E+01  6.0000000E+00 
       601      7.0279072E-04 -8.5677788E-04  1.2000000E+01  6.0000000E+00 
       602      7.5194895E-04 -9.8608475E-04  1.3000000E+01  6.0000000E+00 
       603      8.0001313E-04 -1.1200671E-03  1.4000000E+01  6.0000000E+00 
       604      8.4639660E-04 -1.2652511E-03  1.5000000E+01  6.0000000E+00 
       605      8.9166600E-04 -1.4148460E-03  1.6000000E+01  6.0000000E+00 
       606      9.3529488E-04 -1.5749734E-03  1.7000000E+01  6.0000000E+00 
       607      9.7776010E-04 -1.7392521E-03  1.8000000E+01  6.0000000E+00 
       608      1.0186375E-03 -1.9134035E-03  1.9000000E+01  6.0000000E+00 
       609      1.0582996E-03 -2.0914281E-03  2.0000000E+01  6.0000000E+00 
       610      1.0964232E-03 -2.2786921E-03  2.1000000E+01  6.0000000E+00 
       611      1.1332853E-03 -2.4695202E-03  2.2000000E+01  6.0000000E+00 
       612      1.1686520E-03 -2.6689886E-03  2.3000000E+01  6.0000000E+00 
       613      1.2027169E-03 -2.8716756E-03  2.4000000E+01  6.0000000E+00 
       614      1.2353245E-03 -3.0824417E-03  2.5000000E+01  6.0000000E+00 
       615      1.2665941E-03 -3.2960428E-03  2.6000000E+01  6.0000000E+00 
       616      1.2964411E-03 -3.5171995E-03  2.7000000E+01  6.0000000E+00 
       617      1.3249164E-03 -3.7407700E-03  2.8000000E+01  6.0000000E+00 
       618      1.3520020E-03 -3.9714099E-03  2.9000000E+01  6.0000000E+00 
       619      1.3776839E-03 -4.2040059E-03  3.0000000E+01  6.0000000E+00 
       620      1.4020070E-03 -4.4432210E-03  3.1000000E+01  6.0000000E+00 
       621      1.4248970E-03 -4.6838989E-03  3.2000000E+01  6.0000000E+00 
       622      1.4464554E-03 -4.9307808E-03  3.3000000E+01  6.0000000E+00 
       623      1.4665568E-03 -5.1785970E-03  3.4000000E+01  6.0000000E+00 
       624      1.4853456E-03 -5.4322384E-03  3.5000000E+01  6.0000000E+00 
       625      1.5026657E-03 -5.6862473E-03  3.6000000E+01  6.0000000E+00 
       626      1.5186748E-03 -5.9457445E-03  3.7000000E+01  6.0000000E+00 
       627      1.5332268E-03 -6.2049943E-03  3.8000000E+01  6.0000000E+00 
       628      1.5464395E-03 -6.4694549E-03  3.9000000E+01  6.0000000E+00 
       629      1.5582418E-03 -6.7329767E-03  4.0000000E+01  6.0000000E+00 
       630      1.5686368E-03 -7.0015354E-03  4.1000000E+01  6.0000000E+00 
       631      1.5777021E-03 -7.2683207E-03  4.2000000E+01  6.0000000E+00 
       632      1.5852665E-03 -7.5401679E-03  4.3000000E+01  6.0000000E+00 
       633      1.5915641E-03 -7.8091202E-03  4.4000000E+01  6.0000000E+00 
       634      1.5963328E-03 -8.0835552E-03  4.5000000E+01  6.0000000E+00 
       635      1.5996682E-03 -8.3533425E-03  4.6000000E+01  6.0000000E+00 
       636      1.6018384E-03 -8.6299270E-03  4.7000000E+01  6.0000000E+00 
       637      1.6009735E-03 -8.8977299E-03  4.8000000E+01  6.0000000E+00 

 MAXIMUM         1.6018E-03   0.000       48.00       6.000    
 AT NODE               636           1          49         589

 MINIMUM        -1.6018E-03 -8.9024E-03   0.000      -6.000    
 AT NODE                48         294           1           1


          THE ANALYSIS HAS BEEN COMPLETED



                              ANALYSIS COMPLETE
                              WITH      2 WARNING MESSAGES ON THE DAT FILE



     JOB TIME SUMMARY
       USER TIME (SEC)      =  0.10000    
       SYSTEM TIME (SEC)    =  0.20000    
       TOTAL CPU TIME (SEC) =  0.30000    
       WALLCLOCK TIME (SEC) =          1
