*HEADING
Plane Stress Linear Static analysis of Beam under Parabolic Loading
*PREPRINT, ECHO=YES, HISTORY=NO, MODEL=NO
**
** PARTS
**
*Part, name=Part-1
*End Part
**
**
** ASSEMBLY
**
*Assembly, name=Assembly
**
*Instance, name=Part-1-1, part=Part-1
*NODE
  1,0.0,-6.0
  2,1.0,-6.0
  3,2.0,-6.0
  4,3.0,-6.0
  5,4.0,-6.0
  6,5.0,-6.0
  7,6.0,-6.0
  8,7.0,-6.0
  9,8.0,-6.0
  10,9.0,-6.0
  11,10.0,-6.0
  12,11.0,-6.0
  13,12.0,-6.0
  14,13.0,-6.0
  15,14.0,-6.0
  16,15.0,-6.0
  17,16.0,-6.0
  18,17.0,-6.0
  19,18.0,-6.0
  20,19.0,-6.0
** ... 617 like lines cut
*ELEMENT, TYPE=CPS4R, ELSET=EALL
  1,1,2,51,50
  2,2,3,52,51
  3,3,4,53,52
  4,4,5,54,53
  5,5,6,55,54
  6,6,7,56,55
  7,7,8,57,56
  8,8,9,58,57
  9,9,10,59,58
  10,10,11,60,59
  11,11,12,61,60
  12,12,13,62,61
  13,13,14,63,62
  14,14,15,64,63
  15,15,16,65,64
  16,16,17,66,65
  17,17,18,67,66
  18,18,19,68,67
  19,19,20,69,68
  20,20,21,70,69
** ... 556 like lines cut
** Section: Section-1
*Solid Section, elset=EALL, material=Material-1
1,
*End Instance
**
*Nset, nset=Set_boundary,generate, instance=Part-1-1
  1, 589, 49
*Nset, nset=Set_1, instance=Part-1-1
  49, 637
*Nset, nset=Set_2, instance=Part-1-1
  98, 588
*Nset, nset=Set_3, instance=Part-1-1
  147, 539
*Nset, nset=Set_4, instance=Part-1-1
  196, 490
*Nset, nset=Set_5, instance=Part-1-1
  245, 441
*Nset, nset=Set_6, instance=Part-1-1
  294, 392
*Nset, nset=Set_7, instance=Part-1-1
  343
*End Assembly
**
** MATERIALS
**
*Material, name=Material-1
*Elastic
3e+07, 0.3
*STEP
*STATIC
1.,1.,1e-05,1.
*BOUNDARY
Set_boundary, ENCASTRE
*CLOAD
Set_1, 2, 0.0
Set_2, 2, -38.194
Set_3, 2, -69.44
Set_4, 2, -93.75
Set_5, 2, -111.11
Set_6, 2, -121.52
Set_7, 2, -125.0
*OUTPUT,FIELD
*ELEMENT OUTPUT
S,COORD,
E,
LOADS,
*ENERGY FILE
*OUTPUT,HISTORY,FREQUENCY=1
*ENERGY OUTPUT,VARIABLE=PRESELECT
*NODE FILE
U,COORD
*OUTPUT,FIELD
*NODE OUTPUT
U,COORD
*NODE PRINT
U,COORD
*EL PRINT
SDV
*END STEP
