1

   Abaqus 3DEXPERIENCE R2018x                                  Date 16-May-2020   Time 08:07:37
   For use by Supplied by Team-SolidSQUAD under license from Dassault Systemes or its subsidiary.

 PIEZOELECTRIC PATCH TESTING :::                                                 
                                                                                 
 STEP    1     INCREMENT     1     STEP TIME    0.00    


                        S T E P       1     S T A T I C   A N A L Y S I S


                                                                                          

     AUTOMATIC TIME CONTROL WITH -
          A SUGGESTED INITIAL TIME INCREMENT OF                 1.00    
          AND A TOTAL TIME PERIOD OF                            1.00    
          THE MINIMUM TIME INCREMENT ALLOWED IS                1.000E-05
          THE MAXIMUM TIME INCREMENT ALLOWED IS                 1.00    

     LINEAR EQUATION SOLVER TYPE         DIRECT SPARSE

 CONVERGENCE TOLERANCE PARAMETERS FOR FORCE    
     CRITERION FOR RESIDUAL FORCE     FOR A NONLINEAR PROBLEM          5.000E-03
     CRITERION FOR DISP.    CORRECTION IN A NONLINEAR PROBLEM          1.000E-02
     INITIAL VALUE OF TIME AVERAGE FORCE                               1.000E-02
     AVERAGE FORCE     IS TIME AVERAGE FORCE    
     ALTERNATE CRIT. FOR RESIDUAL FORCE     FOR A NONLINEAR PROBLEM    2.000E-02
     CRITERION FOR ZERO FORCE     RELATIVE TO TIME AVRG. FORCE         1.000E-05
     CRITERION FOR RESIDUAL FORCE     WHEN THERE IS ZERO FLUX          1.000E-05
     CRITERION FOR DISP.    CORRECTION WHEN THERE IS ZERO FLUX         1.000E-03
     CRITERION FOR RESIDUAL FORCE     FOR A LINEAR INCREMENT           1.000E-08
     FIELD CONVERSION RATIO                                             1.00    
     CRITERION FOR ZERO FORCE     REL. TO TIME AVRG. MAX. FORCE        1.000E-05
     CRITERION FOR ZERO DISP.    RELATIVE TO CHARACTERISTIC LENGTH     1.000E-08

 CONVERGENCE TOLERANCE PARAMETERS FOR CHARGE   
     CRITERION FOR RESIDUAL CHARGE    FOR A NONLINEAR PROBLEM          5.000E-03
     CRITERION FOR E. POT.  CORRECTION IN A NONLINEAR PROBLEM          1.000E-02
     INITIAL VALUE OF TIME AVERAGE CHARGE                              1.000E-02
     AVERAGE CHARGE    IS TIME AVERAGE CHARGE   
     ALTERNATE CRIT. FOR RESIDUAL CHARGE    FOR A NONLINEAR PROBLEM    2.000E-02
     CRITERION FOR ZERO CHARGE    RELATIVE TO TIME AVRG. CHARGE        1.000E-05
     CRITERION FOR RESIDUAL CHARGE    WHEN THERE IS ZERO FLUX          1.000E-05
     CRITERION FOR E. POT.  CORRECTION WHEN THERE IS ZERO FLUX         1.000E-03
     CRITERION FOR RESIDUAL CHARGE    FOR A LINEAR INCREMENT           1.000E-08
     FIELD CONVERSION RATIO                                             1.00    
     CRITERION FOR ZERO CHARGE    REL. TO TIME AVRG. MAX. CHARGE       1.000E-05

     VOLUMETRIC STRAIN COMPATIBILITY TOLERANCE FOR HYBRID SOLIDS       1.000E-05
     AXIAL STRAIN COMPATIBILITY TOLERANCE FOR HYBRID BEAMS             1.000E-05
     TRANS. SHEAR STRAIN COMPATIBILITY TOLERANCE FOR HYBRID BEAMS      1.000E-05
     SOFT CONTACT CONSTRAINT COMPATIBILITY TOLERANCE FOR P>P0          5.000E-03
     SOFT CONTACT CONSTRAINT COMPATIBILITY TOLERANCE FOR P=0.0         0.100    
     CONTACT FORCE ERROR TOLERANCE FOR CONVERT SDI=YES                 1.00    
     DISPLACEMENT COMPATIBILITY TOLERANCE FOR DCOUP ELEMENTS           1.000E-05
     ROTATION COMPATIBILITY TOLERANCE FOR DCOUP ELEMENTS               1.000E-05

 EQUILIBRIUM WILL BE CHECKED FOR SEVERE DISCONTINUITY ITERATIONS

 TIME INCREMENTATION CONTROL PARAMETERS:
     FIRST EQUILIBRIUM ITERATION FOR CONSECUTIVE DIVERGENCE CHECK              4
     EQUILIBRIUM ITERATION AT WHICH LOG. CONVERGENCE RATE CHECK BEGINS         8
     EQUILIBRIUM ITERATION AFTER WHICH ALTERNATE RESIDUAL IS USED              9
     MAXIMUM EQUILIBRIUM ITERATIONS ALLOWED                                   16
     EQUILIBRIUM ITERATION COUNT FOR CUT-BACK IN NEXT INCREMENT               10
     MAXIMUM EQUILIB. ITERS IN TWO INCREMENTS FOR TIME INCREMENT INCREASE      4
     MAXIMUM ITERATIONS FOR SEVERE DISCONTINUITIES                            50
     MAXIMUM ATTEMPTS ALLOWED IN AN INCREMENT                                  5
     MAXIMUM DISCON. ITERS IN TWO INCREMENTS FOR TIME INCREMENT INCREASE      50
     MAXIMUM CONTACT AUGMENTATIONS FOR *SURFACE BEHAVIOR,AUGMENTED LAGRANGE   50
     CUT-BACK FACTOR AFTER DIVERGENCE                                 0.2500    
     CUT-BACK FACTOR FOR TOO SLOW CONVERGENCE                         0.5000    
     CUT-BACK FACTOR AFTER TOO MANY EQUILIBRIUM ITERATIONS            0.7500    
     CUT-BACK FACTOR AFTER TOO MANY SEVERE DISCONTINUITY ITERATIONS   0.2500    
     CUT-BACK FACTOR AFTER PROBLEMS IN ELEMENT ASSEMBLY               0.2500    
     INCREASE FACTOR AFTER TWO INCREMENTS THAT CONVERGE QUICKLY        1.500    
     MAX. TIME INCREMENT INCREASE FACTOR ALLOWED                       1.500    
     MAX. TIME INCREMENT INCREASE FACTOR ALLOWED (DYNAMICS)            1.250    
     MAX. TIME INCREMENT INCREASE FACTOR ALLOWED (DIFFUSION)           2.000    
     MINIMUM TIME INCREMENT RATIO FOR EXTRAPOLATION TO OCCUR          0.1000    
     MAX. RATIO OF TIME INCREMENT TO STABILITY LIMIT                   1.000    
     FRACTION OF STABILITY LIMIT FOR NEW TIME INCREMENT               0.9500    
     TIME INCREMENT INCREASE FACTOR BEFORE A TIME POINT                1.000    
     GLOBAL STABILIZATION CONTROL IS NOT USED

          PRINT OF INCREMENT NUMBER, TIME, ETC., EVERY    1  INCREMENTS

     THE MAXIMUM NUMBER OF INCREMENTS IN THIS STEP IS                     100

     LINEAR EXTRAPOLATION WILL BE USED

     DETAILS REGARDING ACTUAL SOLUTION WAVEFRONT REQUESTED

     DETAILED OUTPUT OF DIAGNOSTICS TO DATABASE REQUESTED

     PRINT OF INCREMENT NUMBER, TIME, ETC., TO THE MESSAGE FILE EVERY     1  INCREMENTS

     COLLECTING MODEL CONSTRAINT INFORMATION FOR OVERCONSTRAINT CHECKS

     COLLECTING STEP CONSTRAINT INFORMATION FOR OVERCONSTRAINT CHECKS
 ***********************************
 CURRENT ELEMENT NUMBER::::           1
 NUMBER OF NODES:::           4
 DOFs:::           2
 TOTAL DOF OF ELEMENT:::           12
 ************************************
           1
 AREA1  0.000000000000000E+000
 AREA2  0.000000000000000E+000
 U1x  =  0.000000000000000E+000
 U1y  =  0.000000000000000E+000
 Phi1 =  0.000000000000000E+000
 U2x  =  0.000000000000000E+000
 U2y  =  0.000000000000000E+000
 Phi2 =  0.000000000000000E+000
 U3x  =  0.000000000000000E+000
 U3y  =  0.000000000000000E+000
 Phi3 =  0.000000000000000E+000
 U4x  =  0.000000000000000E+000
 U4y  =  0.000000000000000E+000
 Phi4 =  0.000000000000000E+000
 ***********************************
 CURRENT ELEMENT NUMBER::::           2
 NUMBER OF NODES:::           4
 DOFs:::           2
 TOTAL DOF OF ELEMENT:::           12
 ************************************
           2
 AREA1  0.000000000000000E+000
 AREA2  0.000000000000000E+000
 U1x  =  0.000000000000000E+000
 U1y  =  0.000000000000000E+000
 Phi1 =  0.000000000000000E+000
 U2x  =  0.000000000000000E+000
 U2y  =  0.000000000000000E+000
 Phi2 =  0.000000000000000E+000
 U3x  =  0.000000000000000E+000
 U3y  =  0.000000000000000E+000
 Phi3 =  0.000000000000000E+000
 U4x  =  0.000000000000000E+000
 U4y  =  0.000000000000000E+000
 Phi4 =  0.000000000000000E+000
 ***********************************
 CURRENT ELEMENT NUMBER::::           3
 NUMBER OF NODES:::           4
 DOFs:::           2
 TOTAL DOF OF ELEMENT:::           12
 ************************************
           3
 AREA1  0.000000000000000E+000
 AREA2  0.000000000000000E+000
 U1x  =  0.000000000000000E+000
 U1y  =  0.000000000000000E+000
 Phi1 =  0.000000000000000E+000
 U2x  =  0.000000000000000E+000
 U2y  =  0.000000000000000E+000
 Phi2 =  0.000000000000000E+000
 U3x  =  0.000000000000000E+000
 U3y  =  0.000000000000000E+000
 Phi3 =  0.000000000000000E+000
 U4x  =  0.000000000000000E+000
 U4y  =  0.000000000000000E+000
 Phi4 =  0.000000000000000E+000
 ***********************************
 CURRENT ELEMENT NUMBER::::           4
 NUMBER OF NODES:::           4
 DOFs:::           2
 TOTAL DOF OF ELEMENT:::           12
 ************************************
           4
 AREA1  0.000000000000000E+000
 AREA2  0.000000000000000E+000
 U1x  =  0.000000000000000E+000
 U1y  =  0.000000000000000E+000
 Phi1 =  0.000000000000000E+000
 U2x  =  0.000000000000000E+000
 U2y  =  0.000000000000000E+000
 Phi2 =  0.000000000000000E+000
 U3x  =  0.000000000000000E+000
 U3y  =  0.000000000000000E+000
 Phi3 =  0.000000000000000E+000
 U4x  =  0.000000000000000E+000
 U4y  =  0.000000000000000E+000
 Phi4 =  0.000000000000000E+000
 ***********************************
 CURRENT ELEMENT NUMBER::::           5
 NUMBER OF NODES:::           4
 DOFs:::           2
 TOTAL DOF OF ELEMENT:::           12
 ************************************
           5
 AREA1  0.000000000000000E+000
 AREA2  0.000000000000000E+000
 U1x  =  0.000000000000000E+000
 U1y  =  0.000000000000000E+000
 Phi1 =  0.000000000000000E+000
 U2x  =  0.000000000000000E+000
 U2y  =  0.000000000000000E+000
 Phi2 =  0.000000000000000E+000
 U3x  =  0.000000000000000E+000
 U3y  =  0.000000000000000E+000
 Phi3 =  0.000000000000000E+000
 U4x  =  0.000000000000000E+000
 U4y  =  0.000000000000000E+000
 Phi4 =  0.000000000000000E+000


  INCREMENT     1 STARTS. ATTEMPT NUMBER  1, TIME INCREMENT   1.00    
 ***********************************
 CURRENT ELEMENT NUMBER::::           1
 NUMBER OF NODES:::           4
 DOFs:::           2
 TOTAL DOF OF ELEMENT:::           12
 ************************************
           1
 AREA1  0.000000000000000E+000
 AREA2  0.000000000000000E+000
 U1x  =  0.000000000000000E+000
 U1y  =  0.000000000000000E+000
 Phi1 =  0.000000000000000E+000
 U2x  =  0.000000000000000E+000
 U2y  =  0.000000000000000E+000
 Phi2 =  0.000000000000000E+000
 U3x  =  0.000000000000000E+000
 U3y  =  0.000000000000000E+000
 Phi3 =  0.000000000000000E+000
 U4x  =  0.000000000000000E+000
 U4y  =  0.000000000000000E+000
 Phi4 =  0.000000000000000E+000
 ***********************************
 CURRENT ELEMENT NUMBER::::           2
 NUMBER OF NODES:::           4
 DOFs:::           2
 TOTAL DOF OF ELEMENT:::           12
 ************************************
           2
 AREA1  0.000000000000000E+000
 AREA2  0.000000000000000E+000
 U1x  =  0.000000000000000E+000
 U1y  =  0.000000000000000E+000
 Phi1 =  0.000000000000000E+000
 U2x  =  0.000000000000000E+000
 U2y  =  0.000000000000000E+000
 Phi2 =  0.000000000000000E+000
 U3x  =  0.000000000000000E+000
 U3y  =  0.000000000000000E+000
 Phi3 =  0.000000000000000E+000
 U4x  =  0.000000000000000E+000
 U4y  =  0.000000000000000E+000
 Phi4 =  0.000000000000000E+000
 ***********************************
 CURRENT ELEMENT NUMBER::::           3
 NUMBER OF NODES:::           4
 DOFs:::           2
 TOTAL DOF OF ELEMENT:::           12
 ************************************
           3
 AREA1  0.000000000000000E+000
 AREA2  0.000000000000000E+000
 U1x  =  0.000000000000000E+000
 U1y  =  0.000000000000000E+000
 Phi1 =  0.000000000000000E+000
 U2x  =  0.000000000000000E+000
 U2y  =  0.000000000000000E+000
 Phi2 =  0.000000000000000E+000
 U3x  =  0.000000000000000E+000
 U3y  =  0.000000000000000E+000
 Phi3 =  0.000000000000000E+000
 U4x  =  0.000000000000000E+000
 U4y  =  0.000000000000000E+000
 Phi4 =  0.000000000000000E+000
 ***********************************
 CURRENT ELEMENT NUMBER::::           4
 NUMBER OF NODES:::           4
 DOFs:::           2
 TOTAL DOF OF ELEMENT:::           12
 ************************************
           4
 AREA1  0.000000000000000E+000
 AREA2  0.000000000000000E+000
 U1x  =  0.000000000000000E+000
 U1y  =  0.000000000000000E+000
 Phi1 =  0.000000000000000E+000
 U2x  =  0.000000000000000E+000
 U2y  =  0.000000000000000E+000
 Phi2 =  0.000000000000000E+000
 U3x  =  0.000000000000000E+000
 U3y  =  0.000000000000000E+000
 Phi3 =  0.000000000000000E+000
 U4x  =  0.000000000000000E+000
 U4y  =  0.000000000000000E+000
 Phi4 =  0.000000000000000E+000
 ***********************************
 CURRENT ELEMENT NUMBER::::           5
 NUMBER OF NODES:::           4
 DOFs:::           2
 TOTAL DOF OF ELEMENT:::           12
 ************************************
           5
 AREA1  0.000000000000000E+000
 AREA2  0.000000000000000E+000
 U1x  =  0.000000000000000E+000
 U1y  =  0.000000000000000E+000
 Phi1 =  0.000000000000000E+000
 U2x  =  0.000000000000000E+000
 U2y  =  0.000000000000000E+000
 Phi2 =  0.000000000000000E+000
 U3x  =  0.000000000000000E+000
 U3y  =  0.000000000000000E+000
 Phi3 =  0.000000000000000E+000
 U4x  =  0.000000000000000E+000
 U4y  =  0.000000000000000E+000
 Phi4 =  0.000000000000000E+000

  NUMBER OF EQUATIONS =        24     NUMBER OF RHS =    1
  NUMBER OF FLOATING PT. OPERATIONS =  3.85E+03

     CHECK POINT   START OF SOLVER    

     CHECK POINT  END OF SOLVER       

       ELAPSED USER TIME (SEC)      =   0.0000    
       ELAPSED SYSTEM TIME (SEC)    =   0.0000    
       ELAPSED TOTAL CPU TIME (SEC) =   0.0000    
       ELAPSED WALLCLOCK TIME (SEC) =          0
 ***********************************
 CURRENT ELEMENT NUMBER::::           1
 NUMBER OF NODES:::           4
 DOFs:::           2
 TOTAL DOF OF ELEMENT:::           12
 ************************************
           1
 AREA1   1000.00000000000     
 AREA2  2.842170943040401E-014
 U1x  =  1.584365037499877E-003
 U1y  =  4.810976478165952E-050
 Phi1 =  1.026341648675403E-048
 U2x  =  3.485603082499729E-003
 U2y  =  8.956154087065342E-077
 Phi2 = -2.736911063134408E-048
 U3x  =  3.010293571249767E-003
 U3y  = -9.093949766699501E-005
 Phi3 = -5.333515250408736E-007
 U4x  =  1.901238044999852E-003
 U4y  = -6.062633177799658E-005
 Phi4 = -3.555676833605831E-007
 ***********************************
 CURRENT ELEMENT NUMBER::::           2
 NUMBER OF NODES:::           4
 DOFs:::           2
 TOTAL DOF OF ELEMENT:::           12
 ************************************
           2
 AREA1   999.999999999999     
 AREA2  8.526512829121202E-014
 U1x  =  1.584365037499877E-003
 U1y  =  4.810976478165952E-050
 Phi1 =  1.026341648675403E-048
 U2x  =  1.901238044999852E-003
 U2y  = -6.062633177799658E-005
 Phi2 = -3.555676833605831E-007
 U3x  =  2.218111052499828E-003
 U3y  = -2.425053271119865E-004
 Phi3 = -1.422270733442330E-006
 U4x  =  1.584365037499877E-003
 U4y  = -3.637579906679795E-004
 Phi4 = -2.133406100163495E-006
 ***********************************
 CURRENT ELEMENT NUMBER::::           3
 NUMBER OF NODES:::           4
 DOFs:::           2
 TOTAL DOF OF ELEMENT:::           12
 ************************************
           3
 AREA1   1000.00000000000     
 AREA2  8.810729923425242E-013
 U1x  =  1.901238044999852E-003
 U1y  = -6.062633177799658E-005
 Phi1 = -3.555676833605831E-007
 U2x  =  3.010293571249767E-003
 U2y  = -9.093949766699501E-005
 Phi2 = -5.333515250408736E-007
 U3x  =  2.851857067499778E-003
 U3y  = -2.425053271119862E-004
 Phi3 = -1.422270733442330E-006
 U4x  =  2.218111052499828E-003
 U4y  = -2.425053271119865E-004
 Phi4 = -1.422270733442330E-006
 ***********************************
 CURRENT ELEMENT NUMBER::::           4
 NUMBER OF NODES:::           4
 DOFs:::           2
 TOTAL DOF OF ELEMENT:::           12
 ************************************
           4
 AREA1   1000.00000000000     
 AREA2  1.989519660128281E-013
 U1x  =  3.010293571249767E-003
 U1y  = -9.093949766699501E-005
 Phi1 = -5.333515250408736E-007
 U2x  =  3.485603082499729E-003
 U2y  =  8.956154087065342E-077
 Phi2 = -2.736911063134408E-048
 U3x  =  3.485603082499729E-003
 U3y  = -3.637579906679795E-004
 Phi3 = -2.133406100163495E-006
 U4x  =  2.851857067499778E-003
 U4y  = -2.425053271119862E-004
 Phi4 = -1.422270733442330E-006
 ***********************************
 CURRENT ELEMENT NUMBER::::           5
 NUMBER OF NODES:::           4
 DOFs:::           2
 TOTAL DOF OF ELEMENT:::           12
 ************************************
           5
 AREA1   1000.00000000000     
 AREA2  5.400124791776761E-013
 U1x  =  2.218111052499828E-003
 U1y  = -2.425053271119865E-004
 Phi1 = -1.422270733442330E-006
 U2x  =  2.851857067499778E-003
 U2y  = -2.425053271119862E-004
 Phi2 = -1.422270733442330E-006
 U3x  =  3.485603082499729E-003
 U3y  = -3.637579906679795E-004
 Phi3 = -2.133406100163495E-006
 U4x  =  1.584365037499877E-003
 U4y  = -3.637579906679795E-004
 Phi4 = -2.133406100163495E-006

               CONVERGENCE CHECKS FOR EQUILIBRIUM ITERATION     1


 AVERAGE FORCE                       14.8       TIME AVG. FORCE        14.8    
 LARGEST RESIDUAL FORCE            -1.421E-13   AT NODE         60   DOF  1
 LARGEST INCREMENT OF DISP.         3.486E-03   AT NODE         20   DOF  1
 LARGEST CORRECTION TO DISP.        3.486E-03   AT NODE         20   DOF  1
          THE FORCE     EQUILIBRIUM RESPONSE WAS LINEAR IN THIS INCREMENT

 AVERAGE CHARGE                     4.417E-12   TIME AVG. CHARGE      1.000E-02
 LARGEST RESIDUAL CHARGE            6.366E-12   AT NODE         80   DOF  9
 LARGEST INCREMENT OF E. POT.      -2.133E-06   AT NODE         30   DOF  9
 LARGEST CORRECTION TO E. POT.     -2.133E-06   AT NODE         30   DOF  9
          THERE IS ZERO CHARGE    EVERYWHERE
 

 ***WARNING: THERE IS ZERO CHARGE EVERYWHERE IN THE MODEL BASED ON THE DEFAULT 
             CRITERION. PLEASE CHECK THE VALUE OF THE AVERAGE CHARGE DURING THE 
             CURRENT ITERATION TO VERIFY THAT THE CHARGE IS SMALL ENOUGH TO BE 
             TREATED AS ZERO. IF NOT, PLEASE USE THE SOLUTION CONTROLS TO RESET 
             THE CRITERION FOR ZERO CHARGE.

 ITERATION SUMMARY FOR THE INCREMENT:   1 TOTAL ITERATIONS, OF WHICH
   0 ARE SEVERE DISCONTINUITY ITERATIONS AND  1 ARE EQUILIBRIUM ITERATIONS.

 TIME INCREMENT COMPLETED   1.00    ,  FRACTION OF STEP COMPLETED   1.00    
 STEP TIME COMPLETED        1.00    ,  TOTAL TIME COMPLETED         1.00    


          THE ANALYSIS HAS BEEN COMPLETED



     ANALYSIS SUMMARY:
     TOTAL OF          1  INCREMENTS
                       0  CUTBACKS IN AUTOMATIC INCREMENTATION
                       1  ITERATIONS INCLUDING CONTACT ITERATIONS IF PRESENT
                       1  PASSES THROUGH THE EQUATION SOLVER OF WHICH 
                       1  INVOLVE MATRIX DECOMPOSITION, INCLUDING
                       0  DECOMPOSITION(S) OF THE MASS MATRIX
                       1  REORDERING OF EQUATIONS TO MINIMIZE WAVEFRONT
                       0  ADDITIONAL RESIDUAL EVALUATIONS FOR LINE SEARCHES
                       0  ADDITIONAL OPERATOR EVALUATIONS FOR LINE SEARCHES
                      18  WARNING MESSAGES DURING USER INPUT PROCESSING
                       1  WARNING MESSAGES DURING ANALYSIS
                       0  ANALYSIS WARNINGS ARE NUMERICAL PROBLEM MESSAGES
                       0  ANALYSIS WARNINGS ARE NEGATIVE EIGENVALUE MESSAGES
                       0  ERROR MESSAGES



     JOB TIME SUMMARY
       USER TIME (SEC)      =  0.10000    
       SYSTEM TIME (SEC)    =  0.10000    
       TOTAL CPU TIME (SEC) =  0.20000    
       WALLCLOCK TIME (SEC) =          1
