1

   Abaqus 3DEXPERIENCE R2018x                                  Date 27-Apr-2020   Time 19:31:12
   For use by Supplied by Team-SolidSQUAD under license from Dassault Systemes or its subsidiary.

 PATCH TEST FOR PLANE STRAIN ELEMENT                                             
                                                                                 
 STEP    1     INCREMENT     1     STEP TIME    0.00    


                        S T E P       1     S T A T I C   A N A L Y S I S


                                                                                          

     AUTOMATIC TIME CONTROL WITH -
          A SUGGESTED INITIAL TIME INCREMENT OF                 1.00    
          AND A TOTAL TIME PERIOD OF                            1.00    
          THE MINIMUM TIME INCREMENT ALLOWED IS                1.000E-05
          THE MAXIMUM TIME INCREMENT ALLOWED IS                 1.00    

     LINEAR EQUATION SOLVER TYPE         DIRECT SPARSE

 CONVERGENCE TOLERANCE PARAMETERS FOR FORCE    
     CRITERION FOR RESIDUAL FORCE     FOR A NONLINEAR PROBLEM          5.000E-03
     CRITERION FOR DISP.    CORRECTION IN A NONLINEAR PROBLEM          1.000E-02
     INITIAL VALUE OF TIME AVERAGE FORCE                               1.000E-02
     AVERAGE FORCE     IS TIME AVERAGE FORCE    
     ALTERNATE CRIT. FOR RESIDUAL FORCE     FOR A NONLINEAR PROBLEM    2.000E-02
     CRITERION FOR ZERO FORCE     RELATIVE TO TIME AVRG. FORCE         1.000E-05
     CRITERION FOR RESIDUAL FORCE     WHEN THERE IS ZERO FLUX          1.000E-05
     CRITERION FOR DISP.    CORRECTION WHEN THERE IS ZERO FLUX         1.000E-03
     CRITERION FOR RESIDUAL FORCE     FOR A LINEAR INCREMENT           1.000E-08
     FIELD CONVERSION RATIO                                             1.00    
     CRITERION FOR ZERO FORCE     REL. TO TIME AVRG. MAX. FORCE        1.000E-05
     CRITERION FOR ZERO DISP.    RELATIVE TO CHARACTERISTIC LENGTH     1.000E-08

     VOLUMETRIC STRAIN COMPATIBILITY TOLERANCE FOR HYBRID SOLIDS       1.000E-05
     AXIAL STRAIN COMPATIBILITY TOLERANCE FOR HYBRID BEAMS             1.000E-05
     TRANS. SHEAR STRAIN COMPATIBILITY TOLERANCE FOR HYBRID BEAMS      1.000E-05
     SOFT CONTACT CONSTRAINT COMPATIBILITY TOLERANCE FOR P>P0          5.000E-03
     SOFT CONTACT CONSTRAINT COMPATIBILITY TOLERANCE FOR P=0.0         0.100    
     CONTACT FORCE ERROR TOLERANCE FOR CONVERT SDI=YES                 1.00    
     DISPLACEMENT COMPATIBILITY TOLERANCE FOR DCOUP ELEMENTS           1.000E-05
     ROTATION COMPATIBILITY TOLERANCE FOR DCOUP ELEMENTS               1.000E-05

 EQUILIBRIUM WILL BE CHECKED FOR SEVERE DISCONTINUITY ITERATIONS

 TIME INCREMENTATION CONTROL PARAMETERS:
     FIRST EQUILIBRIUM ITERATION FOR CONSECUTIVE DIVERGENCE CHECK              4
     EQUILIBRIUM ITERATION AT WHICH LOG. CONVERGENCE RATE CHECK BEGINS         8
     EQUILIBRIUM ITERATION AFTER WHICH ALTERNATE RESIDUAL IS USED              9
     MAXIMUM EQUILIBRIUM ITERATIONS ALLOWED                                   16
     EQUILIBRIUM ITERATION COUNT FOR CUT-BACK IN NEXT INCREMENT               10
     MAXIMUM EQUILIB. ITERS IN TWO INCREMENTS FOR TIME INCREMENT INCREASE      4
     MAXIMUM ITERATIONS FOR SEVERE DISCONTINUITIES                            50
     MAXIMUM ATTEMPTS ALLOWED IN AN INCREMENT                                  5
     MAXIMUM DISCON. ITERS IN TWO INCREMENTS FOR TIME INCREMENT INCREASE      50
     MAXIMUM CONTACT AUGMENTATIONS FOR *SURFACE BEHAVIOR,AUGMENTED LAGRANGE   50
     CUT-BACK FACTOR AFTER DIVERGENCE                                 0.2500    
     CUT-BACK FACTOR FOR TOO SLOW CONVERGENCE                         0.5000    
     CUT-BACK FACTOR AFTER TOO MANY EQUILIBRIUM ITERATIONS            0.7500    
     CUT-BACK FACTOR AFTER TOO MANY SEVERE DISCONTINUITY ITERATIONS   0.2500    
     CUT-BACK FACTOR AFTER PROBLEMS IN ELEMENT ASSEMBLY               0.2500    
     INCREASE FACTOR AFTER TWO INCREMENTS THAT CONVERGE QUICKLY        1.500    
     MAX. TIME INCREMENT INCREASE FACTOR ALLOWED                       1.500    
     MAX. TIME INCREMENT INCREASE FACTOR ALLOWED (DYNAMICS)            1.250    
     MAX. TIME INCREMENT INCREASE FACTOR ALLOWED (DIFFUSION)           2.000    
     MINIMUM TIME INCREMENT RATIO FOR EXTRAPOLATION TO OCCUR          0.1000    
     MAX. RATIO OF TIME INCREMENT TO STABILITY LIMIT                   1.000    
     FRACTION OF STABILITY LIMIT FOR NEW TIME INCREMENT               0.9500    
     TIME INCREMENT INCREASE FACTOR BEFORE A TIME POINT                1.000    
     GLOBAL STABILIZATION CONTROL IS NOT USED

          PRINT OF INCREMENT NUMBER, TIME, ETC., EVERY    1  INCREMENTS

     THE MAXIMUM NUMBER OF INCREMENTS IN THIS STEP IS                     100

     LINEAR EXTRAPOLATION WILL BE USED

     DETAILS REGARDING ACTUAL SOLUTION WAVEFRONT REQUESTED

     DETAILED OUTPUT OF DIAGNOSTICS TO DATABASE REQUESTED

     PRINT OF INCREMENT NUMBER, TIME, ETC., TO THE MESSAGE FILE EVERY     1  INCREMENTS

     COLLECTING MODEL CONSTRAINT INFORMATION FOR OVERCONSTRAINT CHECKS

     COLLECTING STEP CONSTRAINT INFORMATION FOR OVERCONSTRAINT CHECKS
 ***********************************
 CURRENT ELEMENT NUMBER::::           1
 NUMBER OF NODES:::           4
 DOFs:::           2
 TOTAL DOF OF ELEMENT:::            8
 ************************************
           1
 AREA1  2.100000000000000E-003
 AREA1  2.700000000000000E-003
 AREA1  2.100000000000000E-003
 AREA1  2.700000000000000E-003
 U  0.000000000000000E+000
 U  0.000000000000000E+000
 U  0.000000000000000E+000
 U  0.000000000000000E+000
 U  0.000000000000000E+000
 U  0.000000000000000E+000
 U  0.000000000000000E+000
 U  0.000000000000000E+000
 ***********************************
 CURRENT ELEMENT NUMBER::::           2
 NUMBER OF NODES:::           4
 DOFs:::           2
 TOTAL DOF OF ELEMENT:::            8
 ************************************
           2
 AREA1  3.200000000000000E-003
 AREA1  2.400000000000000E-003
 AREA1  3.200000000000000E-003
 AREA1  2.400000000000000E-003
 U  0.000000000000000E+000
 U  0.000000000000000E+000
 U  0.000000000000000E+000
 U  0.000000000000000E+000
 U  0.000000000000000E+000
 U  0.000000000000000E+000
 U  0.000000000000000E+000
 U  0.000000000000000E+000
 ***********************************
 CURRENT ELEMENT NUMBER::::           3
 NUMBER OF NODES:::           4
 DOFs:::           2
 TOTAL DOF OF ELEMENT:::            8
 ************************************
           3
 AREA1  3.099999999999999E-003
 AREA1  2.900000000000001E-003
 AREA1  3.099999999999999E-003
 AREA1  2.900000000000001E-003
 U  0.000000000000000E+000
 U  0.000000000000000E+000
 U  0.000000000000000E+000
 U  0.000000000000000E+000
 U  0.000000000000000E+000
 U  0.000000000000000E+000
 U  0.000000000000000E+000
 U  0.000000000000000E+000
 ***********************************
 CURRENT ELEMENT NUMBER::::           4
 NUMBER OF NODES:::           4
 DOFs:::           2
 TOTAL DOF OF ELEMENT:::            8
 ************************************
           4
 AREA1  2.400000000000002E-003
 AREA1  3.599999999999999E-003
 AREA1  2.400000000000002E-003
 AREA1  3.599999999999999E-003
 U  0.000000000000000E+000
 U  0.000000000000000E+000
 U  0.000000000000000E+000
 U  0.000000000000000E+000
 U  0.000000000000000E+000
 U  0.000000000000000E+000
 U  0.000000000000000E+000
 U  0.000000000000000E+000
 ***********************************
 CURRENT ELEMENT NUMBER::::           5
 NUMBER OF NODES:::           4
 DOFs:::           2
 TOTAL DOF OF ELEMENT:::            8
 ************************************
           5
 AREA1  3.200000000000001E-003
 AREA1  3.200000000000000E-003
 AREA1  3.200000000000001E-003
 AREA1  3.200000000000000E-003
 U  0.000000000000000E+000
 U  0.000000000000000E+000
 U  0.000000000000000E+000
 U  0.000000000000000E+000
 U  0.000000000000000E+000
 U  0.000000000000000E+000
 U  0.000000000000000E+000
 U  0.000000000000000E+000


  INCREMENT     1 STARTS. ATTEMPT NUMBER  1, TIME INCREMENT   1.00    
 ***********************************
 CURRENT ELEMENT NUMBER::::           1
 NUMBER OF NODES:::           4
 DOFs:::           2
 TOTAL DOF OF ELEMENT:::            8
 ************************************
           1
 AREA1  2.100000000000000E-003
 AREA1  2.700000000000000E-003
 AREA1  2.100000000000000E-003
 AREA1  2.700000000000000E-003
 U  0.000000000000000E+000
 U  0.000000000000000E+000
 U  0.000000000000000E+000
 U  0.000000000000000E+000
 U  0.000000000000000E+000
 U  0.000000000000000E+000
 U  0.000000000000000E+000
 U  0.000000000000000E+000
 ***********************************
 CURRENT ELEMENT NUMBER::::           2
 NUMBER OF NODES:::           4
 DOFs:::           2
 TOTAL DOF OF ELEMENT:::            8
 ************************************
           2
 AREA1  3.200000000000000E-003
 AREA1  2.400000000000000E-003
 AREA1  3.200000000000000E-003
 AREA1  2.400000000000000E-003
 U  0.000000000000000E+000
 U  0.000000000000000E+000
 U  0.000000000000000E+000
 U  0.000000000000000E+000
 U  0.000000000000000E+000
 U  0.000000000000000E+000
 U  0.000000000000000E+000
 U  0.000000000000000E+000
 ***********************************
 CURRENT ELEMENT NUMBER::::           3
 NUMBER OF NODES:::           4
 DOFs:::           2
 TOTAL DOF OF ELEMENT:::            8
 ************************************
           3
 AREA1  3.099999999999999E-003
 AREA1  2.900000000000001E-003
 AREA1  3.099999999999999E-003
 AREA1  2.900000000000001E-003
 U  0.000000000000000E+000
 U  0.000000000000000E+000
 U  0.000000000000000E+000
 U  0.000000000000000E+000
 U  0.000000000000000E+000
 U  0.000000000000000E+000
 U  0.000000000000000E+000
 U  0.000000000000000E+000
 ***********************************
 CURRENT ELEMENT NUMBER::::           4
 NUMBER OF NODES:::           4
 DOFs:::           2
 TOTAL DOF OF ELEMENT:::            8
 ************************************
           4
 AREA1  2.400000000000002E-003
 AREA1  3.599999999999999E-003
 AREA1  2.400000000000002E-003
 AREA1  3.599999999999999E-003
 U  0.000000000000000E+000
 U  0.000000000000000E+000
 U  0.000000000000000E+000
 U  0.000000000000000E+000
 U  0.000000000000000E+000
 U  0.000000000000000E+000
 U  0.000000000000000E+000
 U  0.000000000000000E+000
 ***********************************
 CURRENT ELEMENT NUMBER::::           5
 NUMBER OF NODES:::           4
 DOFs:::           2
 TOTAL DOF OF ELEMENT:::            8
 ************************************
           5
 AREA1  3.200000000000001E-003
 AREA1  3.200000000000000E-003
 AREA1  3.200000000000001E-003
 AREA1  3.200000000000000E-003
 U  0.000000000000000E+000
 U  0.000000000000000E+000
 U  0.000000000000000E+000
 U  0.000000000000000E+000
 U  0.000000000000000E+000
 U  0.000000000000000E+000
 U  0.000000000000000E+000
 U  0.000000000000000E+000

  NUMBER OF EQUATIONS =        16     NUMBER OF RHS =    1
  NUMBER OF FLOATING PT. OPERATIONS =  1.18E+03

     CHECK POINT   START OF SOLVER    

     CHECK POINT  END OF SOLVER       

       ELAPSED USER TIME (SEC)      =   0.0000    
       ELAPSED SYSTEM TIME (SEC)    =   0.0000    
       ELAPSED TOTAL CPU TIME (SEC) =   0.0000    
       ELAPSED WALLCLOCK TIME (SEC) =          0
 ***********************************
 CURRENT ELEMENT NUMBER::::           1
 NUMBER OF NODES:::           4
 DOFs:::           2
 TOTAL DOF OF ELEMENT:::            8
 ************************************
           1
 AREA1  2.100000000000000E-003
 AREA1  2.700000000000000E-003
 AREA1  2.100000000000000E-003
 AREA1  2.700000000000000E-003
 U  1.440000000000000E-034
 U  2.160000000000000E-034
 U  2.400000000000000E-004
 U  1.200000000000000E-004
 U  1.950000000000000E-004
 U  1.200000000000000E-004
 U  4.999999999999997E-005
 U  3.999999999999998E-005
 ***********************************
 CURRENT ELEMENT NUMBER::::           2
 NUMBER OF NODES:::           4
 DOFs:::           2
 TOTAL DOF OF ELEMENT:::            8
 ************************************
           2
 AREA1  3.200000000000000E-003
 AREA1  2.400000000000000E-003
 AREA1  3.200000000000000E-003
 AREA1  2.400000000000000E-003
 U  1.440000000000000E-034
 U  2.160000000000000E-034
 U  4.999999999999997E-005
 U  3.999999999999998E-005
 U  1.200000000000000E-004
 U  1.200000000000000E-004
 U  6.000000000000000E-005
 U  1.200000000000000E-004
 ***********************************
 CURRENT ELEMENT NUMBER::::           3
 NUMBER OF NODES:::           4
 DOFs:::           2
 TOTAL DOF OF ELEMENT:::            8
 ************************************
           3
 AREA1  3.099999999999999E-003
 AREA1  2.900000000000001E-003
 AREA1  3.099999999999999E-003
 AREA1  2.900000000000001E-003
 U  4.999999999999997E-005
 U  3.999999999999998E-005
 U  1.950000000000000E-004
 U  1.200000000000000E-004
 U  2.000000000000000E-004
 U  1.600000000000000E-004
 U  1.200000000000000E-004
 U  1.200000000000000E-004
 ***********************************
 CURRENT ELEMENT NUMBER::::           4
 NUMBER OF NODES:::           4
 DOFs:::           2
 TOTAL DOF OF ELEMENT:::            8
 ************************************
           4
 AREA1  2.400000000000002E-003
 AREA1  3.599999999999999E-003
 AREA1  2.400000000000002E-003
 AREA1  3.599999999999999E-003
 U  1.950000000000000E-004
 U  1.200000000000000E-004
 U  2.400000000000000E-004
 U  1.200000000000000E-004
 U  3.000000000000000E-004
 U  2.400000000000000E-004
 U  2.000000000000000E-004
 U  1.600000000000000E-004
 ***********************************
 CURRENT ELEMENT NUMBER::::           5
 NUMBER OF NODES:::           4
 DOFs:::           2
 TOTAL DOF OF ELEMENT:::            8
 ************************************
           5
 AREA1  3.200000000000001E-003
 AREA1  3.200000000000000E-003
 AREA1  3.200000000000001E-003
 AREA1  3.200000000000000E-003
 U  1.200000000000000E-004
 U  1.200000000000000E-004
 U  2.000000000000000E-004
 U  1.600000000000000E-004
 U  3.000000000000000E-004
 U  2.400000000000000E-004
 U  6.000000000000000E-005
 U  1.200000000000000E-004

               CONVERGENCE CHECKS FOR EQUILIBRIUM ITERATION     1


 AVERAGE FORCE                      7.170E-02   TIME AVG. FORCE       7.170E-02
 LARGEST RESIDUAL FORCE            -1.527E-16   AT NODE        104   DOF  2
 LARGEST INCREMENT OF DISP.         3.000E-04   AT NODE         30   DOF  1
 LARGEST CORRECTION TO DISP.        3.000E-04   AT NODE         30   DOF  1
          THE FORCE     EQUILIBRIUM RESPONSE WAS LINEAR IN THIS INCREMENT

 ITERATION SUMMARY FOR THE INCREMENT:   1 TOTAL ITERATIONS, OF WHICH
   0 ARE SEVERE DISCONTINUITY ITERATIONS AND  1 ARE EQUILIBRIUM ITERATIONS.

 TIME INCREMENT COMPLETED   1.00    ,  FRACTION OF STEP COMPLETED   1.00    
 STEP TIME COMPLETED        1.00    ,  TOTAL TIME COMPLETED         1.00    


          THE ANALYSIS HAS BEEN COMPLETED



     ANALYSIS SUMMARY:
     TOTAL OF          1  INCREMENTS
                       0  CUTBACKS IN AUTOMATIC INCREMENTATION
                       1  ITERATIONS INCLUDING CONTACT ITERATIONS IF PRESENT
                       1  PASSES THROUGH THE EQUATION SOLVER OF WHICH 
                       1  INVOLVE MATRIX DECOMPOSITION, INCLUDING
                       0  DECOMPOSITION(S) OF THE MASS MATRIX
                       1  REORDERING OF EQUATIONS TO MINIMIZE WAVEFRONT
                       0  ADDITIONAL RESIDUAL EVALUATIONS FOR LINE SEARCHES
                       0  ADDITIONAL OPERATOR EVALUATIONS FOR LINE SEARCHES
                      17  WARNING MESSAGES DURING USER INPUT PROCESSING
                       0  WARNING MESSAGES DURING ANALYSIS
                       0  ANALYSIS WARNINGS ARE NUMERICAL PROBLEM MESSAGES
                       0  ANALYSIS WARNINGS ARE NEGATIVE EIGENVALUE MESSAGES
                       0  ERROR MESSAGES



     JOB TIME SUMMARY
       USER TIME (SEC)      =  0.10000    
       SYSTEM TIME (SEC)    =  0.10000    
       TOTAL CPU TIME (SEC) =  0.20000    
       WALLCLOCK TIME (SEC) =          1
